@<TRIPOS>MOLECULE
C:\Users\Praveer\PycharmProjects\pdb_to_mol2_converter\data\pdb\11bpo.pdb
   18    19     0     0     0
SMALL
GASTEIGER

@<TRIPOS>ATOM
      1 C2         -0.8290    1.1190   -0.0000 C.ar      1 11B1        0.0000
      2 H2         -0.4420    2.1280   -0.0000 H         1 11B1        0.0000
      3 N1         -0.0120   -0.0000   -0.0000 N.ar      1 11B1        0.0000
      4 C5         -0.8290   -1.1190    0.0000 C.ar      1 11B1        0.0000
      5 H5         -0.4420   -2.1280    0.0000 H         1 11B1        0.0000
      6 C4         -2.1170   -0.6800    0.0000 C.ar      1 11B1        0.0000
      7 H4         -2.9950   -1.3110    0.0000 H         1 11B1        0.0000
      8 C3         -2.1170    0.6800   -0.0000 C.ar      1 11B1        0.0000
      9 H3         -2.9950    1.3110   -0.0000 H         1 11B1        0.0000
     10 C8          3.4820    0.6800    0.0000 C.ar      1 11B1        0.0000
     11 H8          4.3600    1.3110    0.0000 H         1 11B1        0.0000
     12 C7          2.1940    1.1190    0.0000 C.ar      1 11B1        0.0000
     13 H7          1.8070    2.1280    0.0000 H         1 11B1        0.0000
     14 N6          1.3770    0.0000    0.0000 N.ar      1 11B1        0.0000
     15 C10         2.1940   -1.1190   -0.0000 C.ar      1 11B1        0.0000
     16 H10         1.8070   -2.1280   -0.0000 H         1 11B1        0.0000
     17 C9          3.4820   -0.6800   -0.0000 C.ar      1 11B1        0.0000
     18 H9          4.3600   -1.3110   -0.0000 H         1 11B1        0.0000
@<TRIPOS>BOND
     1    1    2 1 
     2    1    3 ar
     3    1    8 ar
     4    3    4 ar
     5    3   14 1 
     6    4    5 1 
     7    4    6 ar
     8    6    7 1 
     9    6    8 ar
    10    8    9 1 
    11   10   11 1 
    12   10   12 ar
    13   10   17 ar
    14   12   13 1 
    15   12   14 ar
    16   14   15 ar
    17   15   16 1 
    18   15   17 ar
    19   17   18 1 
