@<TRIPOS>MOLECULE
C:\Users\Praveer\PycharmProjects\pdb_to_mol2_converter\data\pdb\12mu.pdb
   14    13     0     0     0
SMALL
GASTEIGER

@<TRIPOS>ATOM
      1 C1          1.1040    0.0050    0.0000 C.3       1 12M1        0.0000
      2 H11        -0.0070    0.0080    0.0000 H         1 12M1        0.0000
      3 H12         1.4580   -0.5440    0.9020 H         1 12M1        0.0000
      4 H13         1.4580   -0.5440   -0.9010 H         1 12M1        0.0000
      5 N1          1.6160    1.3500    0.0000 N.am      1 12M1        0.0000
      6 H1          0.9740    2.1080    0.0000 H         1 12M1        0.0000
      7 C           2.9590    1.5790   -0.0010 C.2       1 12M1        0.0000
      8 O           3.8000    0.6890   -0.0010 O.2       1 12M1        0.0000
      9 N2          3.2620    2.9070   -0.0010 N.am      1 12M1        0.0000
     10 H2          2.5420    3.5900   -0.0000 H         1 12M1        0.0000
     11 C2          4.6340    3.3420   -0.0030 C.3       1 12M1        0.0000
     12 H21         5.1610    2.9570   -0.9050 H         1 12M1        0.0000
     13 H22         5.1630    2.9580    0.8980 H         1 12M1        0.0000
     14 H23         4.6940    4.4510   -0.0040 H         1 12M1        0.0000
@<TRIPOS>BOND
     1   12   11 1 
     2    4    1 1 
     3   14   11 1 
     4   11    9 1 
     5   11   13 1 
     6    7    8 2 
     7    7    9 am
     8    7    5 am
     9    9   10 1 
    10    1    2 1 
    11    1    5 1 
    12    1    3 1 
    13    5    6 1 
