@<TRIPOS>MOLECULE
C:\Users\Praveer\PycharmProjects\pdb_to_mol2_converter\data\pdb\13bpo.pdb
   18    19     0     0     0
SMALL
GASTEIGER

@<TRIPOS>ATOM
      1 N1         -0.0070    0.0010   -0.0000 N.ar      1 13B1        0.0000
      2 C2         -0.8200    1.1210   -0.0000 C.ar      1 13B1        0.0000
      3 H2         -0.4430    2.1350   -0.0000 H         1 13B1        0.0000
      4 C3         -2.1060    0.6820   -0.0000 C.ar      1 13B1        0.0000
      5 H3         -2.9830    1.3130   -0.0000 H         1 13B1        0.0000
      6 C4         -2.1070   -0.6770    0.0000 C.ar      1 13B1        0.0000
      7 H4         -2.9850   -1.3070    0.0000 H         1 13B1        0.0000
      8 C5         -0.8220   -1.1180    0.0000 C.ar      1 13B1        0.0000
      9 H5         -0.4420   -2.1310    0.0000 H         1 13B1        0.0000
     10 N6          3.5270    0.6660    0.0000 N.ar      1 13B1        0.0000
     11 H6          4.3490    1.2580    0.0000 H         1 13B1        0.0000
     12 C7          2.2180    1.1050    0.0000 C.ar      1 13B1        0.0000
     13 H7          1.9170    2.1430    0.0000 H         1 13B1        0.0000
     14 C8          1.4120   -0.0010   -0.0000 C.ar      1 13B1        0.0000
     15 C9          2.2310   -1.1000   -0.0000 C.ar      1 13B1        0.0000
     16 H9          1.8870   -2.1220   -0.0000 H         1 13B1        0.0000
     17 C10         3.5340   -0.7100   -0.0000 C.ar      1 13B1        0.0000
     18 H10         4.4350   -1.3130   -0.0000 H         1 13B1        0.0000
@<TRIPOS>BOND
     1    1    2 ar
     2    1    8 ar
     3    1   14 1 
     4    2    3 1 
     5    2    4 ar
     6    4    5 1 
     7    4    6 ar
     8    6    7 1 
     9    6    8 ar
    10    8    9 1 
    11   10   11 1 
    12   10   12 ar
    13   10   17 ar
    14   12   13 1 
    15   12   14 ar
    16   14   15 ar
    17   15   16 1 
    18   15   17 ar
    19   17   18 1 
