@<TRIPOS>MOLECULE
C:\Users\Praveer\PycharmProjects\pdb_to_mol2_converter\data\pdb\13db.pdb
   10     9     0     0     0
SMALL
GASTEIGER

@<TRIPOS>ATOM
      1 C1         -0.0060   -0.0010   -0.0000 C.2       1 13D1        0.0000
      2 H11        -0.5700   -0.9460   -0.0000 H         1 13D1        0.0000
      3 H12        -0.5760    0.9410   -0.0000 H         1 13D1        0.0000
      4 C2          1.3390    0.0000    0.0000 C.2       1 13D1        0.0000
      5 H21         1.8650   -0.9700    0.0000 H         1 13D1        0.0000
      6 C3          2.1560    1.2250    0.0000 C.2       1 13D1        0.0000
      7 H31         1.6310    2.1950    0.0000 H         1 13D1        0.0000
      8 C4          3.5010    1.2270    0.0000 C.2       1 13D1        0.0000
      9 H41         4.0720    0.2850    0.0000 H         1 13D1        0.0000
     10 H42         4.0650    2.1720    0.0000 H         1 13D1        0.0000
@<TRIPOS>BOND
     1    1    2 1 
     2    1    3 1 
     3    1    4 2 
     4    4    5 1 
     5    4    6 1 
     6    6    7 1 
     7    6    8 2 
     8    8    9 1 
     9    8   10 1 
