@<TRIPOS>MOLECULE
C:\Users\Praveer\PycharmProjects\pdb_to_mol2_converter\data\pdb\13dp.pdb
   13    12     0     0     0
SMALL
GASTEIGER

@<TRIPOS>ATOM
      1 C1         -0.0100    0.0000    0.0010 C.2       1 13D1        0.0000
      2 H11        -0.5830   -0.9400    0.0010 H         1 13D1        0.0000
      3 H12        -0.5740    0.9470   -0.0000 H         1 13D1        0.0000
      4 C2          1.3350   -0.0090    0.0010 C.2       1 13D1        0.0000
      5 H21         1.8510   -0.9850    0.0020 H         1 13D1        0.0000
      6 C3          2.1610    1.2120    0.0000 C.2       1 13D1        0.0000
      7 H31         1.6410    2.1830   -0.0010 H         1 13D1        0.0000
      8 C4          3.5040    1.2190    0.0000 C.2       1 13D1        0.0000
      9 H41         4.0490    0.2600   -0.0000 H         1 13D1        0.0000
     10 C5          4.3230    2.4840   -0.0010 C.3       1 13D1        0.0000
     11 H51         4.1110    3.1060    0.8960 H         1 13D1        0.0000
     12 H52         4.1120    3.1030   -0.9010 H         1 13D1        0.0000
     13 H53         5.4110    2.2560   -0.0000 H         1 13D1        0.0000
@<TRIPOS>BOND
     1   12   10 1 
     2    7    6 1 
     3   10    8 1 
     4   10   13 1 
     5   10   11 1 
     6    3    1 1 
     7    6    8 2 
     8    6    4 1 
     9    8    9 1 
    10    1    2 1 
    11    1    4 2 
    12    4    5 1 
