@<TRIPOS>MOLECULE
C:\Users\Praveer\PycharmProjects\pdb_to_mol2_converter\data\pdb\14mn.pdb
   24    25     0     0     0
SMALL
GASTEIGER

@<TRIPOS>ATOM
      1 C1          2.1010    1.1980   -0.0000 C.ar      1 14M1        0.0000
      2 C2          1.3850    2.4010   -0.0000 C.ar      1 14M1        0.0000
      3 H2          1.9180    3.3410   -0.0000 H         1 14M1        0.0000
      4 C3         -0.0100    2.4010   -0.0000 C.ar      1 14M1        0.0000
      5 H3         -0.5430    3.3410   -0.0000 H         1 14M1        0.0000
      6 C4         -0.7260    1.1980   -0.0000 C.ar      1 14M1        0.0000
      7 C5         -0.0270   -0.0300   -0.0000 C.ar      1 14M1        0.0000
      8 C6         -0.7130   -1.2580   -0.0000 C.ar      1 14M1        0.0000
      9 H6         -1.7920   -1.3050   -0.0000 H         1 14M1        0.0000
     10 C7         -0.0100   -2.4680   -0.0000 C.ar      1 14M1        0.0000
     11 H7         -0.5500   -3.4050   -0.0000 H         1 14M1        0.0000
     12 C8          1.3850   -2.4680    0.0000 C.ar      1 14M1        0.0000
     13 H8          1.9250   -3.4050    0.0000 H         1 14M1        0.0000
     14 C9          2.0880   -1.2580    0.0000 C.ar      1 14M1        0.0000
     15 H9          3.1670   -1.3050    0.0000 H         1 14M1        0.0000
     16 C10         1.4020   -0.0300   -0.0000 C.ar      1 14M1        0.0000
     17 C11         3.6060    1.2730    0.0000 C.3       1 14M1        0.0000
     18 H111        3.9470    2.3300   -0.0000 H         1 14M1        0.0000
     19 H112        3.9900    0.7650   -0.9100 H         1 14M1        0.0000
     20 H113        3.9900    0.7650    0.9100 H         1 14M1        0.0000
     21 C41        -2.2310    1.2730   -0.0000 C.3       1 14M1        0.0000
     22 H411       -2.5720    2.3300   -0.0000 H         1 14M1        0.0000
     23 H412       -2.6150    0.7650    0.9100 H         1 14M1        0.0000
     24 H413       -2.6150    0.7650   -0.9100 H         1 14M1        0.0000
@<TRIPOS>BOND
     1   19   17 1 
     2   24   21 1 
     3    1    2 ar
     4    1   16 ar
     5    1   17 1 
     6    2    3 1 
     7    2    4 ar
     8    4    5 1 
     9    4    6 ar
    10    6    7 ar
    11    6   21 1 
    12    7    8 ar
    13    7   16 ar
    14    8    9 1 
    15    8   10 ar
    16   10   11 1 
    17   10   12 ar
    18   12   13 1 
    19   12   14 ar
    20   14   15 1 
    21   14   16 ar
    22   17   18 1 
    23   17   20 1 
    24   21   22 1 
    25   21   23 1 
