@<TRIPOS>MOLECULE
C:\Users\Praveer\PycharmProjects\pdb_to_mol2_converter\data\pdb\18nfd.pdb
   16    17     0     0     0
SMALL
GASTEIGER

@<TRIPOS>ATOM
      1 N1          2.2130    1.1730    0.0000 N.ar      1 18N1        0.0000
      2 C2          1.5420    2.3200    0.0000 C.ar      1 18N1        0.0000
      3 H2          2.1330    3.2290    0.0000 H         1 18N1        0.0000
      4 C3          0.1410    2.4120   -0.0000 C.ar      1 18N1        0.0000
      5 H3         -0.3380    3.3780   -0.0000 H         1 18N1        0.0000
      6 C4         -0.6120    1.2300   -0.0000 C.ar      1 18N1        0.0000
      7 H4         -1.6920    1.2740   -0.0000 H         1 18N1        0.0000
      8 C5          0.0610    0.0000   -0.0000 C.ar      1 18N1        0.0000
      9 C6         -0.6120   -1.2300   -0.0000 C.ar      1 18N1        0.0000
     10 H6         -1.6920   -1.2740   -0.0000 H         1 18N1        0.0000
     11 C7          0.1410   -2.4120   -0.0000 C.ar      1 18N1        0.0000
     12 H7         -0.3380   -3.3780   -0.0000 H         1 18N1        0.0000
     13 C8          1.5420   -2.3200    0.0000 C.ar      1 18N1        0.0000
     14 H8          2.1330   -3.2290    0.0000 H         1 18N1        0.0000
     15 N9          2.2130   -1.1730    0.0000 N.ar      1 18N1        0.0000
     16 C10         1.5080   -0.0000    0.0000 C.ar      1 18N1        0.0000
@<TRIPOS>BOND
     1    1    2 ar
     2    1   16 ar
     3    2    3 1 
     4    2    4 ar
     5    4    5 1 
     6    4    6 ar
     7    6    7 1 
     8    6    8 ar
     9    8    9 ar
    10    8   16 ar
    11    9   10 1 
    12    9   11 ar
    13   11   12 1 
    14   11   13 ar
    15   13   14 1 
    16   13   15 ar
    17   15   16 ar
