@<TRIPOS>MOLECULE
C:\Users\Praveer\PycharmProjects\pdb_to_mol2_converter\data\pdb\1box.pdb
   13    12     0     0     0
SMALL
GASTEIGER

@<TRIPOS>ATOM
      1 O1          1.8270    1.4130    0.0000 O.3       1 1BO1        0.0000
      2 C1          1.5010    0.0000    0.0000 C.3       1 1BO1        0.0000
      3 H11         1.9940   -0.4820    0.8350 H         1 1BO1        0.0000
      4 H12         1.9940   -0.4820   -0.8350 H         1 1BO1        0.0000
      5 C2          0.0000    0.0000    0.0000 C.3       1 1BO1        0.0000
      6 H2         -0.7000    0.0600    0.8240 H         1 1BO1        0.0000
      7 C3         -0.9250    0.1410   -1.1720 C.3       1 1BO1        0.0000
      8 H31        -1.2700   -0.8730   -1.4690 H         1 1BO1        0.0000
      9 H32        -0.3560    0.5870   -2.0160 H         1 1BO1        0.0000
     10 C4         -2.1230    1.0220   -0.8220 C.3       1 1BO1        0.0000
     11 H41        -1.7710    2.0370   -0.5400 H         1 1BO1        0.0000
     12 H42        -2.6950    0.5620    0.0120 H         1 1BO1        0.0000
     13 H43        -2.7970    1.1160   -1.7000 H         1 1BO1        0.0000
@<TRIPOS>BOND
     1    9    7 1 
     2   13   10 1 
     3    8    7 1 
     4    7   10 1 
     5    7    5 1 
     6    4    2 1 
     7   10   11 1 
     8   10   12 1 
     9    1    2 1 
    10    2    5 1 
    11    2    3 1 
    12    5    6 1 
