@<TRIPOS>MOLECULE
C:\Users\Praveer\PycharmProjects\pdb_to_mol2_converter\data\pdb\1eox.pdb
    7     6     0     0     0
SMALL
GASTEIGER

@<TRIPOS>ATOM
      1 O1          1.8270    1.4130    0.0000 O.3       1 1EO1        0.0000
      2 C1          1.5010    0.0000    0.0000 C.3       1 1EO1        0.0000
      3 H1         -0.6620    0.1080   -0.8500 H         1 1EO1        0.0000
      4 H2         -0.6620    0.1080    0.8500 H         1 1EO1        0.0000
      5 C2          0.0000    0.0000    0.0000 C.3       1 1EO1        0.0000
      6 H3          1.9940   -0.4820    0.8350 H         1 1EO1        0.0000
      7 H4          1.9940   -0.4820   -0.8350 H         1 1EO1        0.0000
@<TRIPOS>BOND
     1    3    5 1 
     2    7    2 1 
     3    1    2 1 
     4    2    5 1 
     5    2    6 1 
     6    5    4 1 
