@<TRIPOS>MOLECULE
C:\Users\Praveer\PycharmProjects\pdb_to_mol2_converter\data\pdb\1mth.pdb
   18    18     0     0     0
SMALL
GASTEIGER

@<TRIPOS>ATOM
      1 C1          2.0550   -1.3370    0.0000 C.3       1 1MT1        0.0000
      2 H11         3.1660   -1.2520    0.0000 H         1 1MT1        0.0000
      3 H12         1.7680   -1.9350   -0.8970 H         1 1MT1        0.0000
      4 H13         1.7680   -1.9340    0.8980 H         1 1MT1        0.0000
      5 N1          1.3830   -0.0260   -0.0000 N.ar      1 1MT1        0.0000
      6 C6          2.0970    1.1430   -0.0010 C.ar      1 1MT1        0.0000
      7 H6          3.1840    1.0450   -0.0000 H         1 1MT1        0.0000
      8 C2         -0.0250    0.0080   -0.0010 C.ar      1 1MT1        0.0000
      9 O2         -0.7200   -1.0060   -0.0000 O.2       1 1MT1        0.0000
     10 N3         -0.6020    1.2480   -0.0010 N.ar      1 1MT1        0.0000
     11 H3         -1.6020    1.2830   -0.0010 H         1 1MT1        0.0000
     12 C4          0.0620    2.4520   -0.0010 C.ar      1 1MT1        0.0000
     13 O4         -0.6060    3.4830   -0.0020 O.2       1 1MT1        0.0000
     14 C5          1.5040    2.3840   -0.0010 C.ar      1 1MT1        0.0000
     15 C5M         2.2790    3.6640   -0.0010 C.3       1 1MT1        0.0000
     16 H51         3.3770    3.4840   -0.0010 H         1 1MT1        0.0000
     17 H52         2.0330    4.2730    0.8980 H         1 1MT1        0.0000
     18 H53         2.0330    4.2730   -0.9000 H         1 1MT1        0.0000
@<TRIPOS>BOND
     1   18   15 1 
     2    3    1 1 
     3   13   12 2 
     4    6   14 ar
     5    6    5 ar
     6    6    7 1 
     7    8   10 ar
     8    8    5 ar
     9    8    9 2 
    10   10   11 1 
    11   10   12 ar
    12   12   14 ar
    13   14   15 1 
    14   15   16 1 
    15   15   17 1 
    16    1    2 1 
    17    1    5 1 
    18    1    4 1 
