@<TRIPOS>MOLECULE
C:\Users\Praveer\PycharmProjects\pdb_to_mol2_converter\data\pdb\1ph2po.pdb
   22    23     0     0     0
SMALL
GASTEIGER

@<TRIPOS>ATOM
      1 N1          1.2310    2.4060   -0.0000 N.am      1 1PH1        0.0000
      2 C2         -0.1740    2.3700    0.0000 C.2       1 1PH1        0.0000
      3 O2         -0.8620    3.3880    0.0000 O.2       1 1PH1        0.0000
      4 C3         -0.8170    1.0920   -0.0000 C.3       1 1PH1        0.0000
      5 H3         -1.9060    1.0740   -0.0000 H         1 1PH1        0.0000
      6 C4         -0.0790   -0.0630   -0.0000 C.2       1 1PH1        0.0000
      7 H4         -0.5880   -1.0310   -0.0000 H         1 1PH1        0.0000
      8 C5          1.2820   -0.0060   -0.0000 C.2       1 1PH1        0.0000
      9 H5          1.8680   -0.9260   -0.0000 H         1 1PH1        0.0000
     10 C6          1.9130    1.2020   -0.0000 C.3       1 1PH1        0.0000
     11 H6          2.9970    1.1680   -0.0000 H         1 1PH1        0.0000
     12 C7          2.0060    3.6560   -0.0000 C.ar      1 1PH1        0.0000
     13 C8          3.4430    3.6340    0.0000 C.ar      1 1PH1        0.0000
     14 C9          4.2390    4.7920   -0.0000 C.ar      1 1PH1        0.0000
     15 C10         3.6350    6.0460   -0.0000 C.ar      1 1PH1        0.0000
     16 C11         2.2470    6.1460   -0.0000 C.ar      1 1PH1        0.0000
     17 C12         1.4590    4.9820   -0.0000 C.ar      1 1PH1        0.0000
     18 H8          4.0030    2.7130    0.0000 H         1 1PH1        0.0000
     19 H9          5.3170    4.7120    0.0000 H         1 1PH1        0.0000
     20 H10         4.2420    6.9420   -0.0000 H         1 1PH1        0.0000
     21 H11         1.7720    7.1170   -0.0000 H         1 1PH1        0.0000
     22 H12         0.4000    5.1780   -0.0000 H         1 1PH1        0.0000
@<TRIPOS>BOND
     1    1    2 am
     2    1   10 1 
     3    1   12 1 
     4    2    3 2 
     5    2    4 1 
     6    4    5 1 
     7    4    6 1 
     8    6    7 1 
     9    6    8 2 
    10    8    9 1 
    11    8   10 1 
    12   10   11 1 
    13   12   13 ar
    14   12   17 ar
    15   13   14 ar
    16   13   18 1 
    17   14   15 ar
    18   14   19 1 
    19   15   16 ar
    20   15   20 1 
    21   16   17 ar
    22   16   21 1 
    23   17   22 1 
