@<TRIPOS>MOLECULE
C:\Users\Praveer\PycharmProjects\pdb_to_mol2_converter\data\pdb\1ph4po.pdb
   22    23     0     0     0
SMALL
GASTEIGER

@<TRIPOS>ATOM
      1 O4         -0.6660   -1.1950    0.0000 O.2       1 1PH1        0.0000
      2 C4         -0.0630   -0.1250    0.0000 C.ar      1 1PH1        0.0000
      3 C3         -0.7590    1.1040    0.0000 C.ar      1 1PH1        0.0000
      4 C2         -0.0520    2.2780    0.0000 C.ar      1 1PH1        0.0000
      5 N1          1.3320    2.3500   -0.0000 N.ar      1 1PH1        0.0000
      6 C6          1.9870    1.1290   -0.0000 C.ar      1 1PH1        0.0000
      7 C5          1.3490   -0.0830   -0.0000 C.ar      1 1PH1        0.0000
      8 H3         -1.8440    1.0710    0.0000 H         1 1PH1        0.0000
      9 H5          1.8820   -1.0290   -0.0000 H         1 1PH1        0.0000
     10 H6          3.0760    1.1060   -0.0000 H         1 1PH1        0.0000
     11 H2         -0.6350    3.1980    0.0000 H         1 1PH1        0.0000
     12 C7          2.0430    3.6120   -0.0000 C.ar      1 1PH1        0.0000
     13 C8          3.4660    3.6750    0.0000 C.ar      1 1PH1        0.0000
     14 C9          4.1570    4.8970   -0.0000 C.ar      1 1PH1        0.0000
     15 C10         3.4450    6.0980   -0.0000 C.ar      1 1PH1        0.0000
     16 C11         2.0490    6.0850   -0.0000 C.ar      1 1PH1        0.0000
     17 C12         1.3610    4.8620   -0.0000 C.ar      1 1PH1        0.0000
     18 H8          4.0650    2.7780    0.0000 H         1 1PH1        0.0000
     19 H9          5.2380    4.9100    0.0000 H         1 1PH1        0.0000
     20 H10         3.9760    7.0400   -0.0000 H         1 1PH1        0.0000
     21 H11         1.5000    7.0170   -0.0000 H         1 1PH1        0.0000
     22 H12         0.2830    4.9100   -0.0000 H         1 1PH1        0.0000
@<TRIPOS>BOND
     1    1    2 2 
     2    2    3 ar
     3    2    7 ar
     4    3    4 ar
     5    3    8 1 
     6    4    5 ar
     7    4   11 1 
     8    5    6 ar
     9    5   12 1 
    10    6    7 ar
    11    6   10 1 
    12    7    9 1 
    13   12   13 ar
    14   12   17 ar
    15   13   14 ar
    16   13   18 1 
    17   14   15 ar
    18   14   19 1 
    19   15   16 ar
    20   15   20 1 
    21   16   17 ar
    22   16   21 1 
    23   17   22 1 
