@<TRIPOS>MOLECULE
C:\Users\Praveer\PycharmProjects\pdb_to_mol2_converter\data\pdb\21qu.pdb
   18    19     0     0     0
SMALL
GASTEIGER

@<TRIPOS>ATOM
      1 C1         -0.0240    2.4080   -0.0070 C.ar      1 21Q1        0.0000
      2 C2          1.3750    2.4240    0.0020 C.ar      1 21Q1        0.0000
      3 C3          2.0930    1.2190    0.0120 C.ar      1 21Q1        0.0000
      4 C4          1.3890    0.0110    0.0120 C.ar      1 21Q1        0.0000
      5 C5          0.0020   -0.0070    0.0030 C.ar      1 21Q1        0.0000
      6 C6         -0.7200    1.1910   -0.0070 C.ar      1 21Q1        0.0000
      7 H11         3.1080   -1.1680    0.0280 H         1 21Q1        0.0000
      8 C8         -0.6460   -1.2200    0.0030 C.ar      1 21Q1        0.0000
      9 C9          0.0610   -2.4030    0.0130 C.ar      1 21Q1        0.0000
     10 C10         1.4920   -2.3820    0.0220 C.ar      1 21Q1        0.0000
     11 N11         2.1050   -1.1410    0.0210 N.ar      1 21Q1        0.0000
     12 H6         -1.8000    1.1970   -0.0150 H         1 21Q1        0.0000
     13 H1         -0.5730    3.3390   -0.0150 H         1 21Q1        0.0000
     14 H2          1.9030    3.3670    0.0020 H         1 21Q1        0.0000
     15 H3          3.1730    1.2490    0.0190 H         1 21Q1        0.0000
     16 H8         -1.7380   -1.2460   -0.0040 H         1 21Q1        0.0000
     17 H9         -0.4460   -3.3670    0.0140 H         1 21Q1        0.0000
     18 O10         2.2060   -3.3800    0.0320 O.2       1 21Q1        0.0000
@<TRIPOS>BOND
     1   12    6 1 
     2   13    1 1 
     3    1    6 ar
     4    1    2 ar
     5    6    5 ar
     6   16    8 1 
     7    2   14 1 
     8    2    3 ar
     9    5    8 ar
    10    5    4 ar
    11    8    9 ar
    12    3    4 ar
    13    3   15 1 
    14    4   11 ar
    15    9   17 1 
    16    9   10 ar
    17   11   10 ar
    18   11    7 1 
    19   10   18 2 
