@<TRIPOS>MOLECULE
C:\Users\Praveer\PycharmProjects\pdb_to_mol2_converter\data\pdb\22bpy.pdb
   20    21     0     0     0
SMALL
GASTEIGER

@<TRIPOS>ATOM
      1 N1         -0.0140    0.1540    0.0600 N.ar      1 22B1        0.0000
      2 C2          1.3270    0.0330    0.0190 C.ar      1 22B1        0.0000
      3 C3          2.1740    1.1660   -0.0300 C.ar      1 22B1        0.0000
      4 H3          3.2470    1.0590   -0.0640 H         1 22B1        0.0000
      5 C4          1.5830    2.4390   -0.0400 C.ar      1 22B1        0.0000
      6 H4          2.1980    3.3260   -0.0800 H         1 22B1        0.0000
      7 C5          0.1850    2.5430    0.0010 C.ar      1 22B1        0.0000
      8 H5         -0.3010    3.5050   -0.0060 H         1 22B1        0.0000
      9 C6         -0.5720    1.3620    0.0520 C.ar      1 22B1        0.0000
     10 H6         -1.6540    1.4140    0.0850 H         1 22B1        0.0000
     11 N7          3.2220   -1.5230   -0.0410 N.ar      1 22B1        0.0000
     12 C8          1.8820   -1.4020    0.0220 C.ar      1 22B1        0.0000
     13 C9          1.0350   -2.5350    0.0790 C.ar      1 22B1        0.0000
     14 H9         -0.0370   -2.4270    0.1280 H         1 22B1        0.0000
     15 C10         1.6250   -3.8080    0.0660 C.ar      1 22B1        0.0000
     16 H10         1.0100   -4.6950    0.1060 H         1 22B1        0.0000
     17 C11         3.0220   -3.9120   -0.0010 C.ar      1 22B1        0.0000
     18 H11         3.5080   -4.8750   -0.0150 H         1 22B1        0.0000
     19 C12         3.7790   -2.7320   -0.0520 C.ar      1 22B1        0.0000
     20 H12         4.8600   -2.7830   -0.1040 H         1 22B1        0.0000
@<TRIPOS>BOND
     1   20   19 1 
     2    6    5 1 
     3    4    3 1 
     4   19   11 ar
     5   19   17 ar
     6   11   12 ar
     7    5    3 ar
     8    5    7 ar
     9    3    2 ar
    10   18   17 1 
    11    8    7 1 
    12   17   15 ar
    13    7    9 ar
    14    2   12 1 
    15    2    1 ar
    16   12   13 ar
    17    9    1 ar
    18    9   10 1 
    19   15   13 ar
    20   15   16 1 
    21   13   14 1 
