@<TRIPOS>MOLECULE
C:\Users\Praveer\PycharmProjects\pdb_to_mol2_converter\data\pdb\23mn.pdb
   24    25     0     0     0
SMALL
GASTEIGER

@<TRIPOS>ATOM
      1 C1          2.0920    1.2000    0.0000 C.ar      1 23M1        0.0000
      2 H1          3.1720    1.2110    0.0010 H         1 23M1        0.0000
      3 C2          1.3970    2.4190   -0.0020 C.ar      1 23M1        0.0000
      4 C3         -0.0150    2.4200   -0.0030 C.ar      1 23M1        0.0000
      5 C4         -0.7120    1.2030   -0.0030 C.ar      1 23M1        0.0000
      6 H4         -1.7930    1.2170   -0.0040 H         1 23M1        0.0000
      7 C5         -0.0220   -0.0160   -0.0010 C.ar      1 23M1        0.0000
      8 C6         -0.7170   -1.2350   -0.0010 C.ar      1 23M1        0.0000
      9 H6         -1.7980   -1.2490   -0.0020 H         1 23M1        0.0000
     10 C7         -0.0140   -2.4470    0.0010 C.ar      1 23M1        0.0000
     11 H7         -0.5540   -3.3830    0.0010 H         1 23M1        0.0000
     12 C8          1.3860   -2.4490    0.0020 C.ar      1 23M1        0.0000
     13 H8          1.9240   -3.3860    0.0030 H         1 23M1        0.0000
     14 C9          2.0910   -1.2380    0.0020 C.ar      1 23M1        0.0000
     15 H9          3.1720   -1.2550    0.0030 H         1 23M1        0.0000
     16 C10         1.3990   -0.0180    0.0000 C.ar      1 23M1        0.0000
     17 C21         2.1720    3.7070   -0.0010 C.3       1 23M1        0.0000
     18 H211        3.2640    3.5030   -0.0000 H         1 23M1        0.0000
     19 H212        1.9070    4.2880    0.9080 H         1 23M1        0.0000
     20 H213        1.9090    4.2870   -0.9120 H         1 23M1        0.0000
     21 C31        -0.7870    3.7110   -0.0050 C.3       1 23M1        0.0000
     22 H311       -0.5220    4.2880   -0.9160 H         1 23M1        0.0000
     23 H312       -0.5220    4.2910    0.9040 H         1 23M1        0.0000
     24 H313       -1.8790    3.5080   -0.0050 H         1 23M1        0.0000
@<TRIPOS>BOND
     1   22   21 1 
     2   20   17 1 
     3   21   24 1 
     4   21    4 1 
     5   21   23 1 
     6    6    5 1 
     7    4    5 ar
     8    4    3 ar
     9    5    7 ar
    10    3   17 1 
    11    3    1 ar
    12    9    8 1 
    13    7    8 ar
    14    7   16 ar
    15    8   10 ar
    16   17   18 1 
    17   17   19 1 
    18    1   16 ar
    19    1    2 1 
    20   16   14 ar
    21   10   11 1 
    22   10   12 ar
    23   12   14 ar
    24   12   13 1 
    25   14   15 1 
