@<TRIPOS>MOLECULE
C:\Users\Praveer\PycharmProjects\pdb_to_mol2_converter\data\pdb\23sm.pdb
  148   147     0     0     0
SMALL
GASTEIGER

@<TRIPOS>ATOM
      1 N          21.4480    4.8090    6.7250 N.4       1 23S1        0.0000
      2 C15        22.5060    5.7900    7.1240 C.3       1 23S1        0.0000
      3 H15A       22.4070    6.6940    6.5310 H         1 23S1        0.0000
      4 H15B       23.4950    5.3860    6.9550 H         1 23S1        0.0000
      5 H15C       22.4120    6.0640    8.1660 H         1 23S1        0.0000
      6 C14        21.6090    4.4610    5.2720 C.3       1 23S1        0.0000
      7 H14A       22.5660    4.0310    5.0390 H         1 23S1        0.0000
      8 H14B       21.4380    5.3360    4.6400 H         1 23S1        0.0000
      9 H14C       20.8150    3.7770    4.9610 H         1 23S1        0.0000
     10 C13        21.5780    3.5450    7.5200 C.3       1 23S1        0.0000
     11 H13A       21.4580    3.7290    8.5790 H         1 23S1        0.0000
     12 H13B       22.5430    3.0850    7.3560 H         1 23S1        0.0000
     13 H13C       20.8170    2.8340    7.2090 H         1 23S1        0.0000
     14 C12        20.0600    5.4020    6.9260 C.3       1 23S1        0.0000
     15 H12A       19.8380    5.5380    7.9730 H         1 23S1        0.0000
     16 H12B       19.3250    4.6800    6.5490 H         1 23S1        0.0000
     17 C11        19.7440    6.7140    6.1790 C.3       1 23S1        0.0000
     18 H11A       20.5680    7.0420    5.5060 H         1 23S1        0.0000
     19 H11B       19.6010    7.5300    6.9230 H         1 23S1        0.0000
     20 P          18.5440    5.5390    4.2190 P.3       1 23S1        0.0000
     21 O13        19.7060    5.8940    3.3740 O.2       1 23S1        0.0000
     22 O14        18.5250    4.1630    4.7710 O.3       1 23S1        0.0000
     23 O11        17.2030    5.8720    3.4530 O.3       1 23S1        0.0000
     24 O12        18.5320    6.5420    5.4480 O.3       1 23S1        0.0000
     25 C1S        16.8970    7.1990    3.0040 C.3       1 23S1        0.0000
     26 H1S        17.4650    7.9820    3.5610 H         1 23S1        0.0000
     27 H1T        15.8190    7.3800    3.2020 H         1 23S1        0.0000
     28 NF         18.5520    7.1530    1.2090 N.am      1 23S1        0.0000
     29 HNF        19.0860    6.8310    2.0020 H         1 23S1        0.0000
     30 C2S        17.1520    7.3910    1.4710 C.3       1 23S1        0.0000
     31 H2S        16.6000    6.5710    0.9520 H         1 23S1        0.0000
     32 C3S        16.5830    8.7410    0.9430 C.3       1 23S1        0.0000
     33 H3S        16.8910    8.9210   -0.1070 H         1 23S1        0.0000
     34 O3         17.0690    9.8520    1.6950 O.3       1 23S1        0.0000
     35 HO3        17.8500    9.5160    2.1410 H         1 23S1        0.0000
     36 C4S        15.0830    8.7500    1.0240 C.2       1 23S1        0.0000
     37 H4S        14.6680    9.0540    1.9950 H         1 23S1        0.0000
     38 C5S        14.2620    8.4590   -0.0020 C.2       1 23S1        0.0000
     39 H5S        14.6950    8.1850   -0.9800 H         1 23S1        0.0000
     40 C6S        12.7570    8.4660    0.0650 C.3       1 23S1        0.0000
     41 H6S        12.3430    9.0470   -0.7890 H         1 23S1        0.0000
     42 H6T        12.3900    8.9550    0.9970 H         1 23S1        0.0000
     43 C7S        12.1920    7.0350    0.0170 C.3       1 23S1        0.0000
     44 H7S        12.5630    6.4610    0.8970 H         1 23S1        0.0000
     45 H7T        12.5500    6.5160   -0.9020 H         1 23S1        0.0000
     46 C8S        10.6570    7.0150    0.0250 C.3       1 23S1        0.0000
     47 H8S        10.2830    7.5700   -0.8640 H         1 23S1        0.0000
     48 H8T        10.2930    7.5460    0.9340 H         1 23S1        0.0000
     49 C9S        10.0790    5.5930    0.0100 C.3       1 23S1        0.0000
     50 H9S        10.4460    5.0410    0.9040 H         1 23S1        0.0000
     51 H9T        10.4500    5.0580   -0.8930 H         1 23S1        0.0000
     52 C10S        8.5440    5.5870    0.0050 C.3       1 23S1        0.0000
     53 H10S        8.1820    6.1360   -0.8930 H         1 23S1        0.0000
     54 H10T        8.1770    6.1310    0.9050 H         1 23S1        0.0000
     55 C11S        7.9490    4.1720    0.0010 C.3       1 23S1        0.0000
     56 H11S        8.3090    3.6210    0.8990 H         1 23S1        0.0000
     57 H11T        8.3100    3.6260   -0.8990 H         1 23S1        0.0000
     58 C12S        6.4140    4.1850    0.0000 C.3       1 23S1        0.0000
     59 H12S        6.0550    4.7350   -0.8990 H         1 23S1        0.0000
     60 H12T        6.0550    4.7350    0.8990 H         1 23S1        0.0000
     61 C13S        5.8060    2.7760   -0.0000 C.3       1 23S1        0.0000
     62 H13S        6.1630    2.2240    0.8980 H         1 23S1        0.0000
     63 H13T        6.1630    2.2250   -0.8990 H         1 23S1        0.0000
     64 C14S        4.2710    2.7950   -0.0000 C.3       1 23S1        0.0000
     65 H14S        3.9140    3.3470   -0.8990 H         1 23S1        0.0000
     66 H14T        3.9140    3.3470    0.8980 H         1 23S1        0.0000
     67 C15S        3.6620    1.3870   -0.0000 C.3       1 23S1        0.0000
     68 H15S        4.0190    0.8360    0.8990 H         1 23S1        0.0000
     69 H15T        4.0190    0.8360   -0.8990 H         1 23S1        0.0000
     70 C16S        2.1270    1.4040   -0.0010 C.3       1 23S1        0.0000
     71 H16S        1.7680    1.9550   -0.8990 H         1 23S1        0.0000
     72 H16T        1.7680    1.9550    0.8980 H         1 23S1        0.0000
     73 C17S        1.5190   -0.0040   -0.0010 C.3       1 23S1        0.0000
     74 H17S        1.8850   -0.5530    0.8970 H         1 23S1        0.0000
     75 H17T        1.8860   -0.5530   -0.8990 H         1 23S1        0.0000
     76 C18S       -0.0120   -0.0060   -0.0010 C.3       1 23S1        0.0000
     77 H18S       -0.4020    0.5140   -0.9030 H         1 23S1        0.0000
     78 H18T       -0.4020    0.5140    0.9000 H         1 23S1        0.0000
     79 H18U       -0.4010   -1.0470   -0.0020 H         1 23S1        0.0000
     80 C1F        19.0040    6.9220   -0.0180 C.2       1 23S1        0.0000
     81 OF         18.2690    7.0160   -0.9930 O.2       1 23S1        0.0000
     82 C2F        20.4130    6.4230   -0.1170 C.3       1 23S1        0.0000
     83 H2F        20.3820    5.3120   -0.1060 H         1 23S1        0.0000
     84 H2G        20.9860    6.7560    0.7750 H         1 23S1        0.0000
     85 C3F        21.1270    6.9040   -1.3970 C.3       1 23S1        0.0000
     86 H3F        21.1810    8.0160   -1.4030 H         1 23S1        0.0000
     87 H3G        20.5370    6.5880   -2.2870 H         1 23S1        0.0000
     88 C4F        22.5440    6.3250   -1.5050 C.3       1 23S1        0.0000
     89 H4F        22.4790    5.2120   -1.4810 H         1 23S1        0.0000
     90 H4G        23.1420    6.6500   -0.6230 H         1 23S1        0.0000
     91 C5F        23.2680    6.7500   -2.7870 C.3       1 23S1        0.0000
     92 H5F        23.3790    7.8570   -2.8040 H         1 23S1        0.0000
     93 H5G        22.6460    6.4600   -3.6640 H         1 23S1        0.0000
     94 C6F        24.6480    6.0930   -2.9120 C.3       1 23S1        0.0000
     95 H6F        24.5220    4.9880   -2.8600 H         1 23S1        0.0000
     96 H6G        25.2820    6.4010   -2.0510 H         1 23S1        0.0000
     97 C7F        25.3640    6.4460   -4.2200 C.3       1 23S1        0.0000
     98 H7F        25.5190    7.5470   -4.2710 H         1 23S1        0.0000
     99 H7G        24.7190    6.1530   -5.0790 H         1 23S1        0.0000
    100 C8F        26.7180    5.7360   -4.3460 C.3       1 23S1        0.0000
    101 H8F        26.5590    4.6360   -4.2720 H         1 23S1        0.0000
    102 H8G        27.3710    6.0410   -3.4980 H         1 23S1        0.0000
    103 C9F        27.4280    6.0480   -5.6680 C.3       1 23S1        0.0000
    104 H9F        27.5860    7.1470   -5.7510 H         1 23S1        0.0000
    105 H9G        26.7770    5.7340   -6.5150 H         1 23S1        0.0000
    106 C10F       28.7800    5.3340   -5.7830 C.3       1 23S1        0.0000
    107 H10F       28.6230    4.2370   -5.6760 H         1 23S1        0.0000
    108 H10G       29.4390    5.6640   -4.9490 H         1 23S1        0.0000
    109 C11F       29.4810    5.6080   -7.1190 C.3       1 23S1        0.0000
    110 H11F       29.6320    6.7050   -7.2370 H         1 23S1        0.0000
    111 H11G       28.8250    5.2650   -7.9500 H         1 23S1        0.0000
    112 C12F       30.8360    4.8980   -7.2240 C.3       1 23S1        0.0000
    113 H12F       30.6870    3.8050   -7.0720 H         1 23S1        0.0000
    114 H12G       31.5060    5.2640   -6.4130 H         1 23S1        0.0000
    115 C13F       31.5150    5.1250   -8.5800 C.3       1 23S1        0.0000
    116 H13F       31.6700    6.2160   -8.7360 H         1 23S1        0.0000
    117 H13G       30.8400    4.7600   -9.3880 H         1 23S1        0.0000
    118 C14F       32.8630    4.4010   -8.6910 C.3       1 23S1        0.0000
    119 H14F       32.7060    3.3130   -8.5140 H         1 23S1        0.0000
    120 H14G       33.5470    4.7780   -7.8980 H         1 23S1        0.0000
    121 C15F       33.5220    4.5950  -10.0620 C.3       1 23S1        0.0000
    122 H15F       33.6910    5.6810  -10.2380 H         1 23S1        0.0000
    123 H15G       32.8300    4.2270  -10.8530 H         1 23S1        0.0000
    124 C16F       34.8580    3.8500  -10.1800 C.3       1 23S1        0.0000
    125 H16F       34.6860    2.7650   -9.9970 H         1 23S1        0.0000
    126 H16G       35.5530    4.2200   -9.3940 H         1 23S1        0.0000
    127 C17F       35.5120    4.0290  -11.5560 C.3       1 23S1        0.0000
    128 H17F       35.6920    5.1120  -11.7360 H         1 23S1        0.0000
    129 H17G       34.8120    3.6670  -12.3420 H         1 23S1        0.0000
    130 C18F       36.8390    3.2710  -11.6770 C.3       1 23S1        0.0000
    131 H18F       36.6560    2.1850  -11.5090 H         1 23S1        0.0000
    132 H18G       37.5350    3.6240  -10.8830 H         1 23S1        0.0000
    133 C19F       37.5030    3.4630  -13.0470 C.3       1 23S1        0.0000
    134 H19F       37.6920    4.5480  -13.2100 H         1 23S1        0.0000
    135 H19G       36.8060    3.1170  -13.8430 H         1 23S1        0.0000
    136 C20F       38.8280    2.6990  -13.1720 C.3       1 23S1        0.0000
    137 H20F       38.6380    1.6130  -13.0220 H         1 23S1        0.0000
    138 H20G       39.5200    3.0360  -12.3670 H         1 23S1        0.0000
    139 C21F       39.5020    2.9090  -14.5340 C.3       1 23S1        0.0000
    140 H21F       39.6930    3.9960  -14.6820 H         1 23S1        0.0000
    141 H21G       38.8100    2.5750  -15.3390 H         1 23S1        0.0000
    142 C22F       40.8260    2.1470  -14.6620 C.3       1 23S1        0.0000
    143 H22F       40.6310    1.0610  -14.5110 H         1 23S1        0.0000
    144 H22G       41.5110    2.4790  -13.8480 H         1 23S1        0.0000
    145 C23F       41.5140    2.3520  -16.0140 C.3       1 23S1        0.0000
    146 H23F       41.7400    3.4280  -16.1750 H         1 23S1        0.0000
    147 H23G       40.8560    2.0060  -16.8400 H         1 23S1        0.0000
    148 H23H       42.4660    1.7810  -16.0590 H         1 23S1        0.0000
@<TRIPOS>BOND
     1  147  145 1 
     2  146  145 1 
     3  148  145 1 
     4  145  142 1 
     5  141  139 1 
     6  140  139 1 
     7  142  139 1 
     8  142  143 1 
     9  142  144 1 
    10  139  136 1 
    11  135  133 1 
    12  134  133 1 
    13  136  133 1 
    14  136  137 1 
    15  136  138 1 
    16  133  130 1 
    17  129  127 1 
    18  128  127 1 
    19  130  127 1 
    20  130  131 1 
    21  130  132 1 
    22  127  124 1 
    23  123  121 1 
    24  122  121 1 
    25  124  121 1 
    26  124  125 1 
    27  124  126 1 
    28  121  118 1 
    29  117  115 1 
    30  116  115 1 
    31  118  115 1 
    32  118  119 1 
    33  118  120 1 
    34  115  112 1 
    35  111  109 1 
    36  110  109 1 
    37  112  109 1 
    38  112  113 1 
    39  112  114 1 
    40  109  106 1 
    41  105  103 1 
    42  106  107 1 
    43  106  103 1 
    44  106  108 1 
    45  104  103 1 
    46  103  100 1 
    47   99   97 1 
    48  100  101 1 
    49  100   97 1 
    50  100  102 1 
    51   98   97 1 
    52   97   94 1 
    53   93   91 1 
    54   94   95 1 
    55   94   91 1 
    56   94   96 1 
    57   92   91 1 
    58   91   88 1 
    59   87   85 1 
    60   88   89 1 
    61   88   85 1 
    62   88   90 1 
    63   86   85 1 
    64   85   82 1 
    65   81   80 2 
    66   39   38 1 
    67   77   76 1 
    68   45   43 1 
    69   57   55 1 
    70   75   73 1 
    71   59   58 1 
    72   63   61 1 
    73   65   64 1 
    74   69   67 1 
    75   71   70 1 
    76   53   52 1 
    77   51   49 1 
    78   47   46 1 
    79   41   40 1 
    80   82   83 1 
    81   82   80 1 
    82   82   84 1 
    83   33   32 1 
    84   80   28 am
    85   79   76 1 
    86   38   40 1 
    87   38   36 2 
    88   76   73 1 
    89   76   78 1 
    90   73   70 1 
    91   73   74 1 
    92   70   67 1 
    93   70   72 1 
    94   64   61 1 
    95   64   67 1 
    96   64   66 1 
    97   58   61 1 
    98   58   55 1 
    99   58   60 1 
   100   61   62 1 
   101   67   68 1 
   102   55   52 1 
   103   55   56 1 
   104   52   49 1 
   105   52   54 1 
   106   49   46 1 
   107   49   50 1 
   108   43   46 1 
   109   43   40 1 
   110   43   44 1 
   111   46   48 1 
   112   40   42 1 
   113   32   36 1 
   114   32   30 1 
   115   32   34 1 
   116   31   30 1 
   117   36   37 1 
   118   28   30 1 
   119   28   29 1 
   120   30   25 1 
   121   34   35 1 
   122   25   27 1 
   123   25   23 1 
   124   25   26 1 
   125   21   20 2 
   126   23   20 1 
   127   20   22 1 
   128   20   24 1 
   129    8    6 1 
   130    9    6 1 
   131    7    6 1 
   132    6    1 1 
   133   24   17 1 
   134   18   17 1 
   135   17   19 1 
   136   17   14 1 
   137    3    2 1 
   138   16   14 1 
   139    1   14 1 
   140    1    2 1 
   141    1   10 1 
   142   14   15 1 
   143    4    2 1 
   144    2    5 1 
   145   13   10 1 
   146   12   10 1 
   147   10   11 1 
