@<TRIPOS>MOLECULE
C:\Users\Praveer\PycharmProjects\pdb_to_mol2_converter\data\pdb\2amp.pdb
   18    18     0     0     0
SMALL
GASTEIGER

@<TRIPOS>ATOM
      1 NZ          1.4170    2.3820    0.0000 N.ar      1 2AM1        0.0000
      2 CE1         2.0800    1.2260    0.0000 C.ar      1 2AM1        0.0000
      3 CD1         1.4160   -0.0030   -0.0000 C.ar      1 2AM1        0.0000
      4 HD1         1.9500   -0.9360   -0.0000 H         1 2AM1        0.0000
      5 CE2         0.0870    2.4110   -0.0000 C.ar      1 2AM1        0.0000
      6 HE2        -0.4000    3.3790   -0.0000 H         1 2AM1        0.0000
      7 CD2        -0.6740    1.2340   -0.0000 C.ar      1 2AM1        0.0000
      8 HD2        -1.7520    1.2750   -0.0000 H         1 2AM1        0.0000
      9 CG          0.0070    0.0080   -0.0000 C.ar      1 2AM1        0.0000
     10 HG         -0.5430   -0.9230   -0.0000 H         1 2AM1        0.0000
     11 NE          3.4650    1.4470    0.0010 N.am      1 2AM1        0.0000
     12 HE          3.6370    2.4190    0.0020 H         1 2AM1        0.0000
     13 C           4.4540    0.5610    0.0010 C.2       1 2AM1        0.0000
     14 O           4.2870   -0.6480    0.0000 O.2       1 2AM1        0.0000
     15 CM          5.8180    1.1310    0.0030 C.3       1 2AM1        0.0000
     16 HM1         5.9720    1.7530    0.9100 H         1 2AM1        0.0000
     17 HM2         5.9730    1.7530   -0.9030 H         1 2AM1        0.0000
     18 HM3         6.5610    0.3040    0.0030 H         1 2AM1        0.0000
@<TRIPOS>BOND
     1   17   15 1 
     2    1    2 ar
     3    1    5 ar
     4    2    3 ar
     5    2   11 1 
     6    3    4 1 
     7    3    9 ar
     8    5    6 1 
     9    5    7 ar
    10    7    8 1 
    11    7    9 ar
    12    9   10 1 
    13   14   13 2 
    14   11   13 am
    15   11   12 1 
    16   13   15 1 
    17   15   18 1 
    18   15   16 1 
