@<TRIPOS>MOLECULE
C:\Users\Praveer\PycharmProjects\pdb_to_mol2_converter\data\pdb\2boh.pdb
   15    14     0     0     0
SMALL
GASTEIGER

@<TRIPOS>ATOM
      1 C1         -0.6100   -1.4010    0.0230 C.3       1 2BO1        0.0000
      2 H11        -0.2920   -1.9670   -0.8780 H         1 2BO1        0.0000
      3 H12        -1.7200   -1.3530    0.0320 H         1 2BO1        0.0000
      4 H13        -0.2700   -1.9480    0.9260 H         1 2BO1        0.0000
      5 O2         -0.4990    0.6540   -1.1670 O.3       1 2BO1        0.0000
      6 HO2         0.0070    1.4670   -1.2250 H         1 2BO1        0.0000
      7 C2         -0.0190    0.0100   -0.0040 C.3       1 2BO1        0.0000
      8 H2         -0.3690    0.5710    0.8940 H         1 2BO1        0.0000
      9 C3          1.5210    0.0080   -0.0390 C.3       1 2BO1        0.0000
     10 H31         1.8580   -0.5210   -0.9590 H         1 2BO1        0.0000
     11 H32         1.8840   -0.5860    0.8300 H         1 2BO1        0.0000
     12 C4          2.1610    1.4050    0.0120 C.3       1 2BO1        0.0000
     13 H41         1.8180    1.9610    0.9110 H         1 2BO1        0.0000
     14 H42         1.9040    1.9960   -0.8920 H         1 2BO1        0.0000
     15 H43         3.2680    1.3180    0.0600 H         1 2BO1        0.0000
@<TRIPOS>BOND
     1    6    5 1 
     2    5    7 1 
     3   10    9 1 
     4   14   12 1 
     5    2    1 1 
     6    9    7 1 
     7    9   12 1 
     8    9   11 1 
     9    7    1 1 
    10    7    8 1 
    11   12   15 1 
    12   12   13 1 
    13    1    3 1 
    14    1    4 1 
