@<TRIPOS>MOLECULE
C:\Users\Praveer\PycharmProjects\pdb_to_mol2_converter\data\pdb\2bty.pdb
   10     9     0     0     0
SMALL
GASTEIGER

@<TRIPOS>ATOM
      1 C1          0.0010   -0.0010   -0.0000 C.3       1 2BT1        0.0000
      2 H11        -0.3980    0.5160    0.8980 H         1 2BT1        0.0000
      3 H12        -0.3940   -1.0400   -0.0010 H         1 2BT1        0.0000
      4 H13        -0.3970    0.5160   -0.8990 H         1 2BT1        0.0000
      5 C2          1.4650    0.0020    0.0000 C.1       1 2BT1        0.0000
      6 C3          2.6850    0.0050    0.0000 C.1       1 2BT1        0.0000
      7 C4          4.1490    0.0080   -0.0000 C.3       1 2BT1        0.0000
      8 H41         4.5480   -0.5090    0.8980 H         1 2BT1        0.0000
      9 H42         4.5440    1.0470   -0.0010 H         1 2BT1        0.0000
     10 H43         4.5470   -0.5090   -0.8990 H         1 2BT1        0.0000
@<TRIPOS>BOND
     1    4    1 1 
     2   10    7 1 
     3    3    1 1 
     4    9    7 1 
     5    1    5 1 
     6    1    2 1 
     7    5    6 3 
     8    6    7 1 
     9    7    8 1 
