@<TRIPOS>MOLECULE
C:\Users\Praveer\PycharmProjects\pdb_to_mol2_converter\data\pdb\2dhf.pdb
   11    11     0     0     0
SMALL
GASTEIGER

@<TRIPOS>ATOM
      1 O1         -0.0490    0.0800    0.1740 O.2       1 2DH1        0.0000
      2 C2          1.3230    0.0370    0.0520 C.2       1 2DH1        0.0000
      3 H2          1.7680   -0.9530    0.0030 H         1 2DH1        0.0000
      4 C3          1.9040    1.2690    0.0040 C.2       1 2DH1        0.0000
      5 H3          2.9560    1.4750   -0.1390 H         1 2DH1        0.0000
      6 C4          0.8080    2.3020    0.0270 C.3       1 2DH1        0.0000
      7 H41         0.6430    2.7490   -0.9670 H         1 2DH1        0.0000
      8 H42         0.9880    3.1320    0.7280 H         1 2DH1        0.0000
      9 C5         -0.3690    1.4440    0.4450 C.3       1 2DH1        0.0000
     10 H51        -0.5820    1.5230    1.5230 H         1 2DH1        0.0000
     11 H52        -1.2950    1.6950   -0.0930 H         1 2DH1        0.0000
@<TRIPOS>BOND
     1    7    6 1 
     2    5    4 1 
     3   11    9 1 
     4    3    2 1 
     5    4    6 1 
     6    4    2 2 
     7    6    9 1 
     8    6    8 1 
     9    2    1 1 
    10    1    9 1 
    11    9   10 1 
