@<TRIPOS>MOLECULE
C:\Users\Praveer\PycharmProjects\pdb_to_mol2_converter\data\pdb\2hpp.pdb
   11    11     0     0     0
SMALL
GASTEIGER

@<TRIPOS>ATOM
      1 N1         -0.3080    1.3920    0.0000 N.pl3     1 2HP1        0.0000
      2 H1         -1.2290    1.8050    0.0000 H         1 2HP1        0.0000
      3 C2          0.0080   -0.0420   -0.0000 C.3       1 2HP1        0.0000
      4 H21        -0.4510   -0.5140   -0.9060 H         1 2HP1        0.0000
      5 H22        -0.4510   -0.5140    0.9060 H         1 2HP1        0.0000
      6 C3          1.5010   -0.0220    0.0000 C.3       1 2HP1        0.0000
      7 H3          2.1500   -0.8960   -0.0000 H         1 2HP1        0.0000
      8 C4          1.9180    1.2770   -0.0000 C.2       1 2HP1        0.0000
      9 H4          2.9530    1.6070   -0.0000 H         1 2HP1        0.0000
     10 C5          0.7830    2.1120    0.0000 C.2       1 2HP1        0.0000
     11 H5          0.8050    3.2040   -0.0000 H         1 2HP1        0.0000
@<TRIPOS>BOND
     1    4    3 1 
     2    1    2 1 
     3    1    3 1 
     4    1   10 1 
     5    3    6 1 
     6    3    5 1 
     7    6    7 1 
     8    6    8 1 
     9    8    9 1 
    10    8   10 2 
    11   10   11 1 
