@<TRIPOS>MOLECULE
C:\Users\Praveer\PycharmProjects\pdb_to_mol2_converter\data\pdb\2hpr.pdb
   10    10     0     0     0
SMALL
GASTEIGER

@<TRIPOS>ATOM
      1 N1         -0.3530    1.4140    0.0000 N.2       1 2HP1        0.0000
      2 C2          0.0330    0.0040   -0.0000 C.3       1 2HP1        0.0000
      3 H21        -0.4050   -0.4970   -0.8810 H         1 2HP1        0.0000
      4 H22        -0.4050   -0.4970    0.8810 H         1 2HP1        0.0000
      5 C3          1.5240   -0.0270    0.0000 C.2       1 2HP1        0.0000
      6 H3          2.1260   -0.9210   -0.0000 H         1 2HP1        0.0000
      7 C4          1.9420    1.2670   -0.0000 C.2       1 2HP1        0.0000
      8 H4          2.9610    1.6240   -0.0000 H         1 2HP1        0.0000
      9 C5          0.7920    2.0900    0.0000 C.2       1 2HP1        0.0000
     10 H5          0.8080    3.1740   -0.0000 H         1 2HP1        0.0000
@<TRIPOS>BOND
     1    3    2 1 
     2    1    2 1 
     3    1    9 2 
     4    2    5 1 
     5    2    4 1 
     6    5    6 1 
     7    5    7 2 
     8    7    8 1 
     9    7    9 1 
    10    9   10 1 
