@<TRIPOS>MOLECULE
C:\Users\Praveer\PycharmProjects\pdb_to_mol2_converter\data\pdb\2imi.pdb
   11    11     0     0     0
SMALL
GASTEIGER

@<TRIPOS>ATOM
      1 N1         -0.0260   -0.0130   -0.1180 N.3       1 2IM1        0.0000
      2 H1         -0.5010   -0.7960    0.3210 H         1 2IM1        0.0000
      3 C2          1.3710   -0.0260   -0.1280 C.3       1 2IM1        0.0000
      4 H2          1.8800   -0.9880   -0.2120 H         1 2IM1        0.0000
      5 N3          1.9850    1.1430    0.0110 N.3       1 2IM1        0.0000
      6 C4          0.8840    2.1310    0.0730 C.3       1 2IM1        0.0000
      7 H41         0.8010    2.6450   -0.9010 H         1 2IM1        0.0000
      8 H42         1.0870    2.9140    0.8210 H         1 2IM1        0.0000
      9 C5         -0.3700    1.3350    0.3650 C.3       1 2IM1        0.0000
     10 H51        -0.5860    1.3000    1.4470 H         1 2IM1        0.0000
     11 H52        -1.2610    1.7330   -0.1440 H         1 2IM1        0.0000
@<TRIPOS>BOND
     1    7    6 1 
     2    4    3 1 
     3   11    9 1 
     4    3    1 1 
     5    3    5 1 
     6    1    2 1 
     7    1    9 1 
     8    5    6 1 
     9    6    9 1 
    10    6    8 1 
    11    9   10 1 
