@<TRIPOS>MOLECULE
C:\Users\Praveer\PycharmProjects\pdb_to_mol2_converter\data\pdb\2imp.pdb
   12    12     0     0     0
SMALL
GASTEIGER

@<TRIPOS>ATOM
      1 N1         -0.0210   -0.1140   -0.0410 N.3       1 2IM1        0.0000
      2 H1         -0.5090   -0.9950   -0.0320 H         1 2IM1        0.0000
      3 C2          1.3120   -0.0210    0.0430 C.3       1 2IM1        0.0000
      4 H2          1.9780   -0.8580    0.1360 H         1 2IM1        0.0000
      5 N3          1.7020    1.2590   -0.0050 N.3       1 2IM1        0.0000
      6 H3          2.6670    1.5400    0.0520 H         1 2IM1        0.0000
      7 C4          0.5400    2.1660   -0.0440 C.3       1 2IM1        0.0000
      8 H41         0.6590    2.9180   -0.8710 H         1 2IM1        0.0000
      9 H42         0.4800    2.7320    0.9260 H         1 2IM1        0.0000
     10 C5         -0.6330    1.2110   -0.2500 C.3       1 2IM1        0.0000
     11 H51        -1.4760    1.3700    0.4760 H         1 2IM1        0.0000
     12 H52        -1.0630    1.2600   -1.2880 H         1 2IM1        0.0000
@<TRIPOS>BOND
     1   12   10 1 
     2    8    7 1 
     3   10    7 1 
     4   10    1 1 
     5   10   11 1 
     6    7    5 1 
     7    7    9 1 
     8    1    2 1 
     9    1    3 1 
    10    5    3 1 
    11    5    6 1 
    12    3    4 1 
