@<TRIPOS>MOLECULE
C:\Users\Praveer\PycharmProjects\pdb_to_mol2_converter\data\pdb\2mpa.pdb
   28    28     0     0     0
SMALL
GASTEIGER

@<TRIPOS>ATOM
      1 CG1         4.3220    0.9930   -1.2260 C.3       1 2MP1        0.0000
      2 HG1         3.7430    1.1720   -2.1610 H         1 2MP1        0.0000
      3 NG2         4.5450   -0.4890   -1.1780 N.4       1 2MP1        0.0000
      4 HG21        3.6370   -0.9240   -1.0270 H         1 2MP1        0.0000
      5 HG22        5.0690   -0.6940   -0.3430 H         1 2MP1        0.0000
      6 CG3         5.2580   -1.0630   -2.3670 C.3       1 2MP1        0.0000
      7 HG31        4.6100   -0.8450   -3.2330 H         1 2MP1        0.0000
      8 HG32        5.2990   -2.1510   -2.1930 H         1 2MP1        0.0000
      9 CG4         6.6430   -0.4150   -2.4730 C.3       1 2MP1        0.0000
     10 HG41        7.1610   -0.7820   -3.3870 H         1 2MP1        0.0000
     11 HG42        7.2660   -0.7020   -1.5960 H         1 2MP1        0.0000
     12 CG5         6.5160    1.1180   -2.5300 C.3       1 2MP1        0.0000
     13 HG51        6.0090    1.4130   -3.4770 H         1 2MP1        0.0000
     14 HG52        7.5300    1.5790   -2.5380 H         1 2MP1        0.0000
     15 CG6         5.7100    1.6500   -1.3310 C.3       1 2MP1        0.0000
     16 HG61        6.2820    1.4700   -0.3930 H         1 2MP1        0.0000
     17 HG62        5.5870    2.7510   -1.4360 H         1 2MP1        0.0000
     18 CM         -0.0140   -0.0080    0.0380 C.3       1 2MP1        0.0000
     19 HM1        -0.3720   -1.0620    0.0450 H         1 2MP1        0.0000
     20 HM2        -0.4810    0.5140   -0.8240 H         1 2MP1        0.0000
     21 HM3        -0.3380    0.4750    0.9840 H         1 2MP1        0.0000
     22 CG          1.4620    0.0060   -0.0790 C.2       1 2MP1        0.0000
     23 OG          2.0970   -1.0320   -0.2080 O.2       1 2MP1        0.0000
     24 NT          2.0490    1.2120   -0.0570 N.am      1 2MP1        0.0000
     25 HT          1.4340    1.9850    0.0880 H         1 2MP1        0.0000
     26 CGT         3.4890    1.4590   -0.0000 C.3       1 2MP1        0.0000
     27 HGT1        3.6350    2.5610    0.0840 H         1 2MP1        0.0000
     28 HGT2        3.9160    1.0230    0.9330 H         1 2MP1        0.0000
@<TRIPOS>BOND
     1   13   12 1 
     2   10    9 1 
     3    7    6 1 
     4   14   12 1 
     5   12    9 1 
     6   12   15 1 
     7    9    6 1 
     8    9   11 1 
     9    6    8 1 
    10    6    3 1 
    11    2    1 1 
    12   17   15 1 
    13   15    1 1 
    14   15   16 1 
    15    1    3 1 
    16    1   26 1 
    17    3    4 1 
    18    3    5 1 
    19   20   18 1 
    20   23   22 2 
    21   22   24 am
    22   22   18 1 
    23   24   26 1 
    24   24   25 1 
    25   26   27 1 
    26   26   28 1 
    27   18   19 1 
    28   18   21 1 
