@<TRIPOS>MOLECULE
C:\Users\Praveer\PycharmProjects\pdb_to_mol2_converter\data\pdb\2msa.pdb
   19    20     0     0     0
SMALL
GASTEIGER

@<TRIPOS>ATOM
      1 N9          1.3560    0.0070   -0.0010 N.ar      1 2MS1        0.0000
      2 H9          1.8950   -0.8370   -0.0020 H         1 2MS1        0.0000
      3 C8          1.7630    1.3180    0.0000 C.ar      1 2MS1        0.0000
      4 H8          2.8170    1.6090    0.0000 H         1 2MS1        0.0000
      5 N7          0.7500    2.1710    0.0020 N.ar      1 2MS1        0.0000
      6 C5         -0.3780    1.3460    0.0010 C.ar      1 2MS1        0.0000
      7 C6         -1.7600    1.6070    0.0020 C.3       1 2MS1        0.0000
      8 N6         -2.2730    2.8610    0.0030 N.3       1 2MS1        0.0000
      9 H61        -1.6610    3.6510    0.0030 H         1 2MS1        0.0000
     10 H62        -3.2600    2.9930    0.0030 H         1 2MS1        0.0000
     11 N1         -2.6140    0.5390    0.0010 N.2       1 2MS1        0.0000
     12 C2         -2.1080   -0.7320   -0.0000 C.2       1 2MS1        0.0000
     13 N3         -0.7890   -1.0570   -0.0010 N.pl3     1 2MS1        0.0000
     14 C4          0.0060    0.0040   -0.0000 C.ar      1 2MS1        0.0000
     15 S2         -3.1930   -2.1070   -0.0010 S.3       1 2MS1        0.0000
     16 C20        -4.7880   -1.2120    0.0030 C.3       1 2MS1        0.0000
     17 H21        -4.9030   -0.5700   -0.8980 H         1 2MS1        0.0000
     18 H22        -4.9000   -0.5720    0.9060 H         1 2MS1        0.0000
     19 H23        -5.6350   -1.9320    0.0040 H         1 2MS1        0.0000
@<TRIPOS>BOND
     1   17   16 1 
     2    2    1 1 
     3    1    3 ar
     4    1   14 ar
     5   13   12 1 
     6   13   14 1 
     7   15   12 1 
     8   15   16 1 
     9    3    4 1 
    10    3    5 ar
    11   12   11 2 
    12   14    6 ar
    13    6    5 ar
    14    6    7 1 
    15   11    7 1 
    16    7    8 1 
    17    8    9 1 
    18    8   10 1 
    19   16   19 1 
    20   16   18 1 
