@<TRIPOS>MOLECULE
C:\Users\Praveer\PycharmProjects\pdb_to_mol2_converter\data\pdb\2msu.pdb
   15    15     0     0     0
SMALL
GASTEIGER

@<TRIPOS>ATOM
      1 N1          1.3530   -0.0060    0.0020 N.ar      1 2MS1        0.0000
      2 H1          1.9090   -0.8450    0.0030 H         1 2MS1        0.0000
      3 C2          2.0500    1.2020    0.0030 C.ar      1 2MS1        0.0000
      4 S2          3.8020    1.1920    0.0070 S.3       1 2MS1        0.0000
      5 N3          1.3670    2.3690    0.0010 N.ar      1 2MS1        0.0000
      6 C4          0.0070    2.3980   -0.0020 C.ar      1 2MS1        0.0000
      7 O4         -0.5990    3.4680   -0.0030 O.2       1 2MS1        0.0000
      8 C5         -0.7120    1.1590   -0.0020 C.ar      1 2MS1        0.0000
      9 H5         -1.7990    1.1530   -0.0040 H         1 2MS1        0.0000
     10 C6         -0.0050   -0.0060   -0.0000 C.ar      1 2MS1        0.0000
     11 H6         -0.5180   -0.9710   -0.0010 H         1 2MS1        0.0000
     12 C20         4.0650    3.0020    0.0110 C.3       1 2MS1        0.0000
     13 H201        3.6200    3.4810    0.9110 H         1 2MS1        0.0000
     14 H202        3.6260    3.4840   -0.8900 H         1 2MS1        0.0000
     15 H203        5.1510    3.2380    0.0150 H         1 2MS1        0.0000
@<TRIPOS>BOND
     1   14   12 1 
     2    9    8 1 
     3    7    6 2 
     4    6    8 ar
     5    6    5 ar
     6    8   10 ar
     7   11   10 1 
     8   10    1 ar
     9    5    3 ar
    10    1    2 1 
    11    1    3 ar
    12    3    4 1 
    13    4   12 1 
    14   12   15 1 
    15   12   13 1 
