@<TRIPOS>MOLECULE
C:\Users\Praveer\PycharmProjects\pdb_to_mol2_converter\data\pdb\2pdo.pdb
   13    13     0     0     0
SMALL
GASTEIGER

@<TRIPOS>ATOM
      1 N1          1.4170    0.0150    0.1090 N.am      1 2PD1        0.0000
      2 H1          2.0350   -0.7710   -0.0520 H         1 2PD1        0.0000
      3 C2          1.9170    1.2980    0.0490 C.2       1 2PD1        0.0000
      4 O2          3.1040    1.6110    0.0330 O.2       1 2PD1        0.0000
      5 C3          0.7070    2.2290   -0.0220 C.3       1 2PD1        0.0000
      6 H31         0.5910    2.6000   -1.0500 H         1 2PD1        0.0000
      7 H32         0.8360    3.1030    0.6300 H         1 2PD1        0.0000
      8 C4         -0.4540    1.3330    0.4000 C.3       1 2PD1        0.0000
      9 H41        -1.4090    1.6380   -0.0520 H         1 2PD1        0.0000
     10 H42        -0.5960    1.3790    1.4930 H         1 2PD1        0.0000
     11 C5         -0.0310   -0.0680   -0.0190 C.3       1 2PD1        0.0000
     12 H51        -0.4710   -0.8510    0.6200 H         1 2PD1        0.0000
     13 H52        -0.3250   -0.2910   -1.0580 H         1 2PD1        0.0000
@<TRIPOS>BOND
     1   13   11 1 
     2    6    5 1 
     3    2    1 1 
     4    9    8 1 
     5    5    3 1 
     6    5    8 1 
     7    5    7 1 
     8   11    1 1 
     9   11    8 1 
    10   11   12 1 
    11    4    3 2 
    12    3    1 am
    13    8   10 1 
