@<TRIPOS>MOLECULE
C:\Users\Praveer\PycharmProjects\pdb_to_mol2_converter\data\pdb\2prl.pdb
   12    12     0     0     0
SMALL
GASTEIGER

@<TRIPOS>ATOM
      1 N1         -0.0390   -0.0050    0.2030 N.pl3     1 2PR1        0.0000
      2 H1         -0.4730   -0.2830   -0.6750 H         1 2PR1        0.0000
      3 C2          1.3770   -0.0160    0.1100 C.2       1 2PR1        0.0000
      4 H2          1.8920   -0.9730    0.0990 H         1 2PR1        0.0000
      5 C3          1.8880    1.2460    0.0660 C.2       1 2PR1        0.0000
      6 H3          2.9290    1.5010   -0.0700 H         1 2PR1        0.0000
      7 C4          0.7410    2.2230   -0.0280 C.3       1 2PR1        0.0000
      8 H41         0.5320    2.5240   -1.0670 H         1 2PR1        0.0000
      9 H42         0.9040    3.1480    0.5460 H         1 2PR1        0.0000
     10 C5         -0.3810    1.3920    0.5490 C.3       1 2PR1        0.0000
     11 H51        -0.4470    1.4860    1.6470 H         1 2PR1        0.0000
     12 H52        -1.3680    1.6680    0.1440 H         1 2PR1        0.0000
@<TRIPOS>BOND
     1    8    7 1 
     2    2    1 1 
     3    6    5 1 
     4    7    5 1 
     5    7    9 1 
     6    7   10 1 
     7    5    3 2 
     8    4    3 1 
     9    3    1 1 
    10   12   10 1 
    11    1   10 1 
    12   10   11 1 
