@<TRIPOS>MOLECULE
C:\Users\Praveer\PycharmProjects\pdb_to_mol2_converter\data\pdb\2prp.pdb
   13    13     0     0     0
SMALL
GASTEIGER

@<TRIPOS>ATOM
      1 N1         -0.0090   -0.0290    0.0360 N.pl3     1 2PR1        0.0000
      2 H11        -0.3700   -0.7240    0.6780 H         1 2PR1        0.0000
      3 H12        -0.3920   -0.2600   -0.8730 H         1 2PR1        0.0000
      4 C2          1.4780   -0.0130   -0.0140 C.2       1 2PR1        0.0000
      5 H2          2.0440   -0.9450   -0.0510 H         1 2PR1        0.0000
      6 C3          1.9630    1.2650   -0.0140 C.2       1 2PR1        0.0000
      7 H3          3.0070    1.5510   -0.0810 H         1 2PR1        0.0000
      8 C4          0.8190    2.2590    0.0400 C.3       1 2PR1        0.0000
      9 H41         0.6430    2.7310   -0.9420 H         1 2PR1        0.0000
     10 H42         0.9940    3.0850    0.7500 H         1 2PR1        0.0000
     11 C5         -0.3780    1.3920    0.4580 C.3       1 2PR1        0.0000
     12 H51        -0.4900    1.4590    1.5740 H         1 2PR1        0.0000
     13 H52        -1.3320    1.7580    0.0020 H         1 2PR1        0.0000
@<TRIPOS>BOND
     1    9    8 1 
     2    3    1 1 
     3    7    6 1 
     4    5    4 1 
     5    4    6 2 
     6    4    1 1 
     7    6    8 1 
     8   13   11 1 
     9    1   11 1 
    10    1    2 1 
    11    8   11 1 
    12    8   10 1 
    13   11   12 1 
