@<TRIPOS>MOLECULE
C:\Users\Praveer\PycharmProjects\pdb_to_mol2_converter\data\pdb\2prz.pdb
   11    11     0     0     0
SMALL
GASTEIGER

@<TRIPOS>ATOM
      1 N1         -0.0050   -0.1290    0.2220 N.3       1 2PR1        0.0000
      2 H1         -0.3100   -0.4570   -0.6970 H         1 2PR1        0.0000
      3 N2          1.4070   -0.0470    0.1060 N.3       1 2PR1        0.0000
      4 C3          1.7440    1.2360    0.0590 C.3       1 2PR1        0.0000
      5 H3          2.7650    1.5470   -0.1270 H         1 2PR1        0.0000
      6 C4          0.5500    2.1560    0.0260 C.3       1 2PR1        0.0000
      7 H41         0.2960    2.4330   -1.0090 H         1 2PR1        0.0000
      8 H42         0.6870    3.0820    0.5960 H         1 2PR1        0.0000
      9 C5         -0.5030    1.2110    0.5630 C.3       1 2PR1        0.0000
     10 H51        -0.5550    1.2610    1.6660 H         1 2PR1        0.0000
     11 H52        -1.5210    1.3950    0.1880 H         1 2PR1        0.0000
@<TRIPOS>BOND
     1    7    6 1 
     2    2    1 1 
     3    5    4 1 
     4    6    4 1 
     5    6    9 1 
     6    6    8 1 
     7    4    3 1 
     8    3    1 1 
     9   11    9 1 
    10    1    9 1 
    11    9   10 1 
