@<TRIPOS>MOLECULE
C:\Users\Praveer\PycharmProjects\pdb_to_mol2_converter\data\pdb\2pyo.pdb
   12    12     0     0     0
SMALL
GASTEIGER

@<TRIPOS>ATOM
      1 N1          0.0570   -0.2110   -0.0000 N.ar      1 2PY1        0.0000
      2 H1         -0.2540   -1.1670    0.0000 H         1 2PY1        0.0000
      3 C2          1.4360   -0.0550   -0.0000 C.ar      1 2PY1        0.0000
      4 O2          2.1380   -1.0640    0.0000 O.2       1 2PY1        0.0000
      5 C3          1.9380    1.2850   -0.0000 C.ar      1 2PY1        0.0000
      6 H3          3.0180    1.4290   -0.0000 H         1 2PY1        0.0000
      7 C4          1.0630    2.3500   -0.0000 C.ar      1 2PY1        0.0000
      8 H4          1.4550    3.3710   -0.0000 H         1 2PY1        0.0000
      9 C5         -0.2920    2.1390   -0.0000 C.ar      1 2PY1        0.0000
     10 H5         -0.9820    2.9840    0.0000 H         1 2PY1        0.0000
     11 C6         -0.7750    0.8610    0.0000 C.ar      1 2PY1        0.0000
     12 H6         -1.8480    0.6640    0.0000 H         1 2PY1        0.0000
@<TRIPOS>BOND
     1    1    2 1 
     2    1    3 ar
     3    1   11 ar
     4    3    4 2 
     5    3    5 ar
     6    5    6 1 
     7    5    7 ar
     8    7    8 1 
     9    7    9 ar
    10    9   10 1 
    11    9   11 ar
    12   11   12 1 
