@<TRIPOS>MOLECULE
C:\Users\Praveer\PycharmProjects\pdb_to_mol2_converter\data\pdb\2smpyr.pdb
   14    14     0     0     0
SMALL
GASTEIGER

@<TRIPOS>ATOM
      1 N1          0.9090    2.3980    0.0040 N.ar      1 2SM1        0.0000
      2 C2          1.7240    1.2940    0.0090 C.ar      1 2SM1        0.0000
      3 N3          1.3020   -0.0090    0.0090 N.ar      1 2SM1        0.0000
      4 C4         -0.0150   -0.1960    0.0030 C.ar      1 2SM1        0.0000
      5 C5         -0.9370    0.8600   -0.0030 C.ar      1 2SM1        0.0000
      6 C6         -0.4000    2.1550   -0.0020 C.ar      1 2SM1        0.0000
      7 H4         -0.3690   -1.2220    0.0020 H         1 2SM1        0.0000
      8 H5         -1.9980    0.6860   -0.0080 H         1 2SM1        0.0000
      9 H6         -1.0630    3.0140   -0.0060 H         1 2SM1        0.0000
     10 S7          3.4730    1.4960    0.0170 S.3       1 2SM1        0.0000
     11 C8          3.5700    3.3250    0.0130 C.3       1 2SM1        0.0000
     12 H81         3.0740    3.7610    0.9080 H         1 2SM1        0.0000
     13 H82         3.0900    3.7550   -0.8930 H         1 2SM1        0.0000
     14 H83         4.6290    3.6600    0.0220 H         1 2SM1        0.0000
@<TRIPOS>BOND
     1   13   11 1 
     2    8    5 1 
     3    9    6 1 
     4    5    6 ar
     5    5    4 ar
     6    6    1 ar
     7    7    4 1 
     8    4    3 ar
     9    1    2 ar
    10    2    3 ar
    11    2   10 1 
    12   11   10 1 
    13   11   14 1 
    14   11   12 1 
