@<TRIPOS>MOLECULE
C:\Users\Praveer\PycharmProjects\pdb_to_mol2_converter\data\pdb\33bpo.pdb
   18    19     0     0     0
SMALL
GASTEIGER

@<TRIPOS>ATOM
      1 C5         -0.8070    1.1060   -0.0000 C.ar      1 33B1        0.0000
      2 H5         -0.5130    2.1470   -0.0000 H         1 33B1        0.0000
      3 C4         -0.0110   -0.0040    0.0000 C.ar      1 33B1        0.0000
      4 C3         -0.8300   -1.1010    0.0000 C.ar      1 33B1        0.0000
      5 H3         -0.4940   -2.1280    0.0000 H         1 33B1        0.0000
      6 C2         -2.1300   -0.7050    0.0000 C.ar      1 33B1        0.0000
      7 H2         -3.0320   -1.3050    0.0000 H         1 33B1        0.0000
      8 N1         -2.1140    0.6690   -0.0000 N.ar      1 33B1        0.0000
      9 H1         -2.9310    1.2640   -0.0000 H         1 33B1        0.0000
     10 C10         3.5800   -0.7050   -0.0000 C.ar      1 33B1        0.0000
     11 H10         4.4820   -1.3050   -0.0000 H         1 33B1        0.0000
     12 C9          2.2800   -1.1010   -0.0000 C.ar      1 33B1        0.0000
     13 H9          1.9440   -2.1280   -0.0000 H         1 33B1        0.0000
     14 C8          1.4610   -0.0040   -0.0000 C.ar      1 33B1        0.0000
     15 C7          2.2570    1.1060    0.0000 C.ar      1 33B1        0.0000
     16 H7          1.9630    2.1470    0.0000 H         1 33B1        0.0000
     17 N6          3.5640    0.6690    0.0000 N.ar      1 33B1        0.0000
     18 H6          4.3810    1.2640    0.0000 H         1 33B1        0.0000
@<TRIPOS>BOND
     1    1    2 1 
     2    1    3 ar
     3    1    8 ar
     4    3    4 ar
     5    3   14 1 
     6    4    5 1 
     7    4    6 ar
     8    6    7 1 
     9    6    8 ar
    10    8    9 1 
    11   10   11 1 
    12   10   12 ar
    13   10   17 ar
    14   12   13 1 
    15   12   14 ar
    16   14   15 ar
    17   15   16 1 
    18   15   17 ar
    19   17   18 1 
