@<TRIPOS>MOLECULE
C:\Users\Praveer\PycharmProjects\pdb_to_mol2_converter\data\pdb\34ap.pdb
   15    15     0     0     0
SMALL
GASTEIGER

@<TRIPOS>ATOM
      1 NZ          1.4480    2.3550   -0.0000 N.ar      1 34A1        0.0000
      2 CE1         2.0930    1.1870    0.0000 C.ar      1 34A1        0.0000
      3 CD1         1.4510   -0.0720    0.0000 C.ar      1 34A1        0.0000
      4 CG          0.0190   -0.0510   -0.0000 C.ar      1 34A1        0.0000
      5 CE2         0.1190    2.3620    0.0000 C.ar      1 34A1        0.0000
      6 CD2        -0.6410    1.1860   -0.0000 C.ar      1 34A1        0.0000
      7 ND1         2.2250   -1.2510    0.0000 N.pl3     1 34A1        0.0000
      8 NG         -0.7840   -1.1990   -0.0000 N.pl3     1 34A1        0.0000
      9 HE1         3.1740    1.2220    0.0000 H         1 34A1        0.0000
     10 HD2        -1.7170    1.2470   -0.0000 H         1 34A1        0.0000
     11 HE2        -0.3740    3.3270   -0.0000 H         1 34A1        0.0000
     12 HD11        3.2180   -1.1450   -0.0000 H         1 34A1        0.0000
     13 HD12        1.7220   -2.1120   -0.0000 H         1 34A1        0.0000
     14 HG11       -0.3110   -2.0760    0.0000 H         1 34A1        0.0000
     15 HG12       -1.7720   -1.0550    0.0000 H         1 34A1        0.0000
@<TRIPOS>BOND
     1    1    2 ar
     2    1    5 ar
     3    2    3 ar
     4    2    9 1 
     5    3    4 ar
     6    3    7 1 
     7    4    6 ar
     8    4    8 1 
     9    5    6 ar
    10    5   11 1 
    11    6   10 1 
    12    7   12 1 
    13    7   13 1 
    14    8   14 1 
    15    8   15 1 
