@<TRIPOS>MOLECULE
C:\Users\Praveer\PycharmProjects\pdb_to_mol2_converter\data\pdb\34mp.pdb
   17    17     0     0     0
SMALL
GASTEIGER

@<TRIPOS>ATOM
      1 NZ          1.4610    2.3570   -0.0100 N.ar      1 34M1        0.0000
      2 CE1         2.0880    1.1810   -0.0330 C.ar      1 34M1        0.0000
      3 CD1         1.4030   -0.0510   -0.0210 C.ar      1 34M1        0.0000
      4 CG         -0.0100   -0.0080    0.0190 C.ar      1 34M1        0.0000
      5 CD2        -0.6530    1.2410    0.0410 C.ar      1 34M1        0.0000
      6 CE2         0.1320    2.4020    0.0250 C.ar      1 34M1        0.0000
      7 HE1         3.1700    1.1910   -0.0620 H         1 34M1        0.0000
      8 HD2        -1.7280    1.3100    0.0710 H         1 34M1        0.0000
      9 HE2        -0.3360    3.3790    0.0430 H         1 34M1        0.0000
     10 C3          2.1550   -1.3560   -0.0460 C.3       1 34M1        0.0000
     11 H31         1.9430   -1.9120    0.8930 H         1 34M1        0.0000
     12 H32         3.2470   -1.1680   -0.1260 H         1 34M1        0.0000
     13 H33         1.8200   -1.9520   -0.9220 H         1 34M1        0.0000
     14 C2         -0.8240   -1.2700    0.0420 C.3       1 34M1        0.0000
     15 H21        -0.5510   -1.8580    0.9440 H         1 34M1        0.0000
     16 H22        -0.6050   -1.8590   -0.8750 H         1 34M1        0.0000
     17 H23        -1.9090   -1.0310    0.0740 H         1 34M1        0.0000
@<TRIPOS>BOND
     1   13   10 1 
     2   16   14 1 
     3   12   10 1 
     4    7    2 1 
     5   10    3 1 
     6   10   11 1 
     7    2    3 ar
     8    2    1 ar
     9    3    4 ar
    10    1    6 ar
    11    4    5 ar
    12    4   14 1 
    13    6    5 ar
    14    6    9 1 
    15    5    8 1 
    16   14   17 1 
    17   14   15 1 
