@<TRIPOS>MOLECULE
C:\Users\Praveer\PycharmProjects\pdb_to_mol2_converter\data\pdb\3acp.pdb
   16    16     0     0     0
SMALL
GASTEIGER

@<TRIPOS>ATOM
      1 NZ          1.4070    2.3750   -0.0000 N.ar      1 3AC1        0.0000
      2 CE1         2.0730    1.2200    0.0000 C.ar      1 3AC1        0.0000
      3 CD1         1.4250   -0.0320    0.0000 C.ar      1 3AC1        0.0000
      4 CG          0.0130   -0.0250    0.0000 C.ar      1 3AC1        0.0000
      5 CD2        -0.6740    1.1990   -0.0000 C.ar      1 3AC1        0.0000
      6 CE2         0.0760    2.3850   -0.0000 C.ar      1 3AC1        0.0000
      7 HE1         3.1540    1.2870    0.0000 H         1 3AC1        0.0000
      8 HG         -0.5400   -0.9550    0.0000 H         1 3AC1        0.0000
      9 HD2        -1.7520    1.2330   -0.0000 H         1 3AC1        0.0000
     10 HE2        -0.4210    3.3480   -0.0000 H         1 3AC1        0.0000
     11 C           2.1820   -1.3000    0.0010 C.2       1 3AC1        0.0000
     12 O           1.6040   -2.3840   -0.0010 O.2       1 3AC1        0.0000
     13 CH3         3.6810   -1.2580    0.0030 C.3       1 3AC1        0.0000
     14 HC1         4.0520   -0.7420    0.9140 H         1 3AC1        0.0000
     15 HC2         4.0550   -0.7420   -0.9060 H         1 3AC1        0.0000
     16 HC3         4.0650   -2.3000    0.0040 H         1 3AC1        0.0000
@<TRIPOS>BOND
     1   15   13 1 
     2   12   11 2 
     3    1    2 ar
     4    1    6 ar
     5    2    3 ar
     6    2    7 1 
     7    3    4 ar
     8    3   11 1 
     9    4    5 ar
    10    4    8 1 
    11    5    6 ar
    12    5    9 1 
    13    6   10 1 
    14   11   13 1 
    15   13   16 1 
    16   13   14 1 
