@<TRIPOS>MOLECULE
C:\Users\Praveer\PycharmProjects\pdb_to_mol2_converter\data\pdb\3alp.pdb
   13    13     0     0     0
SMALL
GASTEIGER

@<TRIPOS>ATOM
      1 NZ          1.4570    2.3230    0.0000 N.ar      1 3AL1        0.0000
      2 CE1         2.1020    1.1550    0.0000 C.ar      1 3AL1        0.0000
      3 CD1         1.4190   -0.0730    0.0000 C.ar      1 3AL1        0.0000
      4 CG          0.0120   -0.0500    0.0000 C.ar      1 3AL1        0.0000
      5 CD2        -0.6500    1.1900    0.0000 C.ar      1 3AL1        0.0000
      6 CE2         0.1260    2.3620   -0.0000 C.ar      1 3AL1        0.0000
      7 HE1         3.1850    1.1710    0.0000 H         1 3AL1        0.0000
      8 HG         -0.5530   -0.9700    0.0000 H         1 3AL1        0.0000
      9 HD2        -1.7260    1.2480   -0.0000 H         1 3AL1        0.0000
     10 HE2        -0.3500    3.3350   -0.0000 H         1 3AL1        0.0000
     11 CD3         2.1800   -1.3420    0.0000 C.2       1 3AL1        0.0000
     12 O1          3.3900   -1.4470    0.0000 O.2       1 3AL1        0.0000
     13 H3          1.5760   -2.2740    0.0000 H         1 3AL1        0.0000
@<TRIPOS>BOND
     1    1    2 ar
     2    1    6 ar
     3    2    3 ar
     4    2    7 1 
     5    3    4 ar
     6    3   11 1 
     7    4    5 ar
     8    4    8 1 
     9    5    6 ar
    10    5    9 1 
    11    6   10 1 
    12   11   12 2 
    13   11   13 1 
