@<TRIPOS>MOLECULE
C:\Users\Praveer\PycharmProjects\pdb_to_mol2_converter\data\pdb\3amp.pdb
   18    18     0     0     0
SMALL
GASTEIGER

@<TRIPOS>ATOM
      1 NZ          1.3590    2.4270    0.0000 N.ar      1 3AM1        0.0000
      2 CE1         2.0380    1.2720    0.0000 C.ar      1 3AM1        0.0000
      3 HE1         3.1170    1.3330   -0.0000 H         1 3AM1        0.0000
      4 CE2         0.0290    2.4170    0.0000 C.ar      1 3AM1        0.0000
      5 HE2        -0.4810    3.3730    0.0000 H         1 3AM1        0.0000
      6 CD1         1.4080    0.0070   -0.0000 C.ar      1 3AM1        0.0000
      7 CD2        -0.7050    1.2190    0.0000 C.ar      1 3AM1        0.0000
      8 HD2        -1.7830    1.2400    0.0000 H         1 3AM1        0.0000
      9 CG          0.0010    0.0040    0.0000 C.ar      1 3AM1        0.0000
     10 HG         -0.5320   -0.9330   -0.0000 H         1 3AM1        0.0000
     11 ND          2.0410   -1.2660   -0.0010 N.am      1 3AM1        0.0000
     12 HD          1.4230   -2.0390   -0.0010 H         1 3AM1        0.0000
     13 C           3.3540   -1.5150   -0.0010 C.2       1 3AM1        0.0000
     14 O           4.2090   -0.6430   -0.0000 O.2       1 3AM1        0.0000
     15 CM          3.7350   -2.9440   -0.0030 C.3       1 3AM1        0.0000
     16 HM1         3.3380   -3.4450   -0.9100 H         1 3AM1        0.0000
     17 HM2         3.3380   -3.4480    0.9040 H         1 3AM1        0.0000
     18 HM3         4.8430   -3.0270   -0.0030 H         1 3AM1        0.0000
@<TRIPOS>BOND
     1   16   15 1 
     2   15   18 1 
     3   15   13 1 
     4   15   17 1 
     5   11   12 1 
     6   11   13 am
     7   11    6 1 
     8   13   14 2 
     9    1    2 ar
    10    1    4 ar
    11    2    3 1 
    12    2    6 ar
    13    4    5 1 
    14    4    7 ar
    15    6    9 ar
    16    7    8 1 
    17    7    9 ar
    18    9   10 1 
