@<TRIPOS>MOLECULE
C:\Users\Praveer\PycharmProjects\pdb_to_mol2_converter\data\pdb\3apy.pdb
   13    13     0     0     0
SMALL
GASTEIGER

@<TRIPOS>ATOM
      1 CG          0.0360   -0.0450   -0.0000 C.ar      1 3AP1        0.0000
      2 HG         -0.5260   -0.9670   -0.0000 H         1 3AP1        0.0000
      3 CD1         1.4390   -0.0660   -0.0000 C.ar      1 3AP1        0.0000
      4 ND1         2.1230   -1.2840   -0.0000 N.pl3     1 3AP1        0.0000
      5 HD11        1.5610   -2.1110    0.0000 H         1 3AP1        0.0000
      6 HD12        3.1220   -1.2480    0.0000 H         1 3AP1        0.0000
      7 CD2        -0.6390    1.1880    0.0000 C.ar      1 3AP1        0.0000
      8 HD2        -1.7160    1.2340    0.0000 H         1 3AP1        0.0000
      9 CE1         2.1030    1.1850   -0.0000 C.ar      1 3AP1        0.0000
     10 HE1         3.1830    1.2120   -0.0000 H         1 3AP1        0.0000
     11 CE2         0.1250    2.3670    0.0000 C.ar      1 3AP1        0.0000
     12 HE2        -0.3660    3.3330    0.0000 H         1 3AP1        0.0000
     13 NZ          1.4560    2.3540    0.0000 N.ar      1 3AP1        0.0000
@<TRIPOS>BOND
     1    1    2 1 
     2    1    3 ar
     3    1    7 ar
     4    3    4 1 
     5    3    9 ar
     6    4    5 1 
     7    4    6 1 
     8    7    8 1 
     9    7   11 ar
    10    9   10 1 
    11    9   13 ar
    12   11   12 1 
    13   11   13 ar
