@<TRIPOS>MOLECULE
C:\Users\Praveer\PycharmProjects\pdb_to_mol2_converter\data\pdb\3bnp.pdb
   24    25     0     0     0
SMALL
GASTEIGER

@<TRIPOS>ATOM
      1 NZ          1.4090    2.4150   -0.1050 N.ar      1 3BN1        0.0000
      2 CE1         2.0500    1.2470   -0.0440 C.ar      1 3BN1        0.0000
      3 CD1         1.3770    0.0060   -0.0170 C.ar      1 3BN1        0.0000
      4 CG         -0.0300    0.0340   -0.0480 C.ar      1 3BN1        0.0000
      5 CD2        -0.6950    1.2690   -0.1050 C.ar      1 3BN1        0.0000
      6 CE2         0.0780    2.4420   -0.1320 C.ar      1 3BN1        0.0000
      7 HE1         3.1320    1.2690   -0.0190 H         1 3BN1        0.0000
      8 HG         -0.5900   -0.8880   -0.0240 H         1 3BN1        0.0000
      9 HD2        -1.7710    1.3230   -0.1270 H         1 3BN1        0.0000
     10 HE2        -0.4030    3.4110   -0.1770 H         1 3BN1        0.0000
     11 C           2.1320   -1.3000    0.0370 C.3       1 3BN1        0.0000
     12 HC1         3.1070   -1.1850   -0.4870 H         1 3BN1        0.0000
     13 HC2         1.5440   -2.0880   -0.4850 H         1 3BN1        0.0000
     14 CA1         2.3770   -1.7210    1.4640 C.ar      1 3BN1        0.0000
     15 CA2         1.4450   -2.5310    2.1340 C.ar      1 3BN1        0.0000
     16 CA3         1.6710   -2.9240    3.4600 C.ar      1 3BN1        0.0000
     17 CA4         2.8330   -2.5100    4.1230 C.ar      1 3BN1        0.0000
     18 CA5         3.7680   -1.7030    3.4620 C.ar      1 3BN1        0.0000
     19 CA6         3.5410   -1.3110    2.1360 C.ar      1 3BN1        0.0000
     20 HA2         0.5480   -2.8480    1.6240 H         1 3BN1        0.0000
     21 HA3         0.9490   -3.5450    3.9710 H         1 3BN1        0.0000
     22 HA4         3.0080   -2.8130    5.1460 H         1 3BN1        0.0000
     23 HA5         4.6640   -1.3820    3.9750 H         1 3BN1        0.0000
     24 HA6         4.2610   -0.6870    1.6290 H         1 3BN1        0.0000
@<TRIPOS>BOND
     1   12   11 1 
     2   13   11 1 
     3   10    6 1 
     4    6    1 ar
     5    6    5 ar
     6    9    5 1 
     7    1    2 ar
     8    5    4 ar
     9    4    8 1 
    10    4    3 ar
    11    2    7 1 
    12    2    3 ar
    13    3   11 1 
    14   11   14 1 
    15   14   15 ar
    16   14   19 ar
    17   20   15 1 
    18   24   19 1 
    19   15   16 ar
    20   19   18 ar
    21   16   21 1 
    22   16   17 ar
    23   18   23 1 
    24   18   17 ar
    25   17   22 1 
