@<TRIPOS>MOLECULE
C:\Users\Praveer\PycharmProjects\pdb_to_mol2_converter\data\pdb\3bpy.pdb
   23    23     0     0     0
SMALL
GASTEIGER

@<TRIPOS>ATOM
      1 NZ          1.4270    2.3850   -0.0440 N.ar      1 3BP1        0.0000
      2 CE1         2.0700    1.2170   -0.0160 C.ar      1 3BP1        0.0000
      3 CD1         1.3970   -0.0230   -0.0080 C.ar      1 3BP1        0.0000
      4 CG         -0.0100    0.0020   -0.0190 C.ar      1 3BP1        0.0000
      5 CE2         0.0950    2.4110   -0.0600 C.ar      1 3BP1        0.0000
      6 CD2        -0.6760    1.2370   -0.0460 C.ar      1 3BP1        0.0000
      7 HE1         3.1520    1.2390    0.0010 H         1 3BP1        0.0000
      8 HG         -0.5670   -0.9220   -0.0030 H         1 3BP1        0.0000
      9 HD2        -1.7530    1.2900   -0.0550 H         1 3BP1        0.0000
     10 HE2        -0.3870    3.3810   -0.0820 H         1 3BP1        0.0000
     11 CD3         2.1510   -1.3260    0.0420 C.3       1 3BP1        0.0000
     12 H11         3.1200   -1.2010   -0.4890 H         1 3BP1        0.0000
     13 H12         1.5590   -2.1040   -0.4880 H         1 3BP1        0.0000
     14 C2          2.3870   -1.7340    1.5050 C.3       1 3BP1        0.0000
     15 H21         1.4090   -1.8390    2.0290 H         1 3BP1        0.0000
     16 H22         2.9670   -0.9420    2.0310 H         1 3BP1        0.0000
     17 C3          3.1500   -3.0600    1.6250 C.3       1 3BP1        0.0000
     18 H31         4.1300   -2.9600    1.1040 H         1 3BP1        0.0000
     19 H32         2.5730   -3.8560    1.1000 H         1 3BP1        0.0000
     20 C4          3.3930   -3.4910    3.0740 C.3       1 3BP1        0.0000
     21 H41         2.4270   -3.6240    3.6070 H         1 3BP1        0.0000
     22 H42         3.9880   -2.7220    3.6140 H         1 3BP1        0.0000
     23 H43         3.9490   -4.4530    3.1090 H         1 3BP1        0.0000
@<TRIPOS>BOND
     1   12   11 1 
     2   13   11 1 
     3   10    5 1 
     4    5    6 ar
     5    5    1 ar
     6    9    6 1 
     7    6    4 ar
     8    1    2 ar
     9    4    3 ar
    10    4    8 1 
    11    2    3 ar
    12    2    7 1 
    13    3   11 1 
    14   11   14 1 
    15   19   17 1 
    16   18   17 1 
    17   14   17 1 
    18   14   15 1 
    19   14   16 1 
    20   17   20 1 
    21   20   23 1 
    22   20   21 1 
    23   20   22 1 
