@<TRIPOS>MOLECULE
C:\Users\Praveer\PycharmProjects\pdb_to_mol2_converter\data\pdb\3cap.pdb
   15    15     0     0     0
SMALL
GASTEIGER

@<TRIPOS>ATOM
      1 NZ          1.4490    2.2970    0.2730 N.ar      1 3CA1        0.0000
      2 CE1         2.0400    1.1050    0.2660 C.ar      1 3CA1        0.0000
      3 CD1         1.3390   -0.0980    0.0190 C.ar      1 3CA1        0.0000
      4 CG         -0.0500   -0.0020   -0.1880 C.ar      1 3CA1        0.0000
      5 CD2        -0.6670    1.2550   -0.1610 C.ar      1 3CA1        0.0000
      6 CE2         0.1410    2.3900    0.0610 C.ar      1 3CA1        0.0000
      7 HE1         3.1090    1.0780    0.4290 H         1 3CA1        0.0000
      8 HG         -0.6220   -0.9050   -0.3740 H         1 3CA1        0.0000
      9 HD2        -1.7260    1.3650   -0.3190 H         1 3CA1        0.0000
     10 HE2        -0.2970    3.3800    0.0660 H         1 3CA1        0.0000
     11 CD3         2.0940   -1.3920   -0.1330 C.3       1 3CA1        0.0000
     12 H11         3.1150   -1.2850    0.3000 H         1 3CA1        0.0000
     13 H12         2.1890   -1.5870   -1.2280 H         1 3CA1        0.0000
     14 OH          1.4220   -2.5060    0.4720 O.3       1 3CA1        0.0000
     15 HO          1.4610   -2.3800    1.4260 H         1 3CA1        0.0000
@<TRIPOS>BOND
     1   13   11 1 
     2    8    4 1 
     3    9    5 1 
     4    4    5 ar
     5    4    3 ar
     6    5    6 ar
     7   11    3 1 
     8   11   12 1 
     9   11   14 1 
    10    3    2 ar
    11    6   10 1 
    12    6    1 ar
    13    2    1 ar
    14    2    7 1 
    15   14   15 1 
