@<TRIPOS>MOLECULE
C:\Users\Praveer\PycharmProjects\pdb_to_mol2_converter\data\pdb\3cb.pdb
   14    14     0     0     0
SMALL
GASTEIGER

@<TRIPOS>ATOM
      1 CZ          1.3770    2.4180   -0.0000 C.ar      1 3CB1        0.0000
      2 CE1         2.0710    1.2030    0.0000 C.ar      1 3CB1        0.0000
      3 CD1         1.3810   -0.0320    0.0000 C.ar      1 3CB1        0.0000
      4 CG         -0.0330   -0.0000    0.0000 C.ar      1 3CB1        0.0000
      5 CE2        -0.0230    2.4250   -0.0000 C.ar      1 3CB1        0.0000
      6 CD2        -0.7280    1.2150    0.0000 C.ar      1 3CB1        0.0000
      7 HE1         3.1530    1.2010    0.0000 H         1 3CB1        0.0000
      8 HG         -0.5810   -0.9320    0.0000 H         1 3CB1        0.0000
      9 HD2        -1.8070    1.2150   -0.0000 H         1 3CB1        0.0000
     10 HE2        -0.5590    3.3620   -0.0000 H         1 3CB1        0.0000
     11 HZ          1.9250    3.3480   -0.0000 H         1 3CB1        0.0000
     12 CD3         2.1460   -1.3700    0.0000 C.2       1 3CB1        0.0000
     13 O1          3.4070   -1.3060    0.0000 O.co2     1 3CB1        0.0000
     14 O2          1.4510   -2.4240    0.0000 O.co2     1 3CB1        0.0000
@<TRIPOS>BOND
     1    1    2 ar
     2    1    5 ar
     3    1   11 1 
     4    2    3 ar
     5    2    7 1 
     6    3    4 ar
     7    3   12 1 
     8    4    6 ar
     9    4    8 1 
    10    5    6 ar
    11    5   10 1 
    12    6    9 1 
    13   12   13 ar
    14   12   14 ar
