@<TRIPOS>MOLECULE
C:\Users\Praveer\PycharmProjects\pdb_to_mol2_converter\data\pdb\3cpy.pdb
   13    13     0     0     0
SMALL
GASTEIGER

@<TRIPOS>ATOM
      1 NZ          1.4580    2.3320   -0.0000 N.ar      1 3CP1        0.0000
      2 CE1         2.0850    1.1510    0.0000 C.ar      1 3CP1        0.0000
      3 CD1         1.4030   -0.0810    0.0000 C.ar      1 3CP1        0.0000
      4 CG         -0.0120   -0.0350    0.0000 C.ar      1 3CP1        0.0000
      5 CE2         0.1280    2.3680   -0.0000 C.ar      1 3CP1        0.0000
      6 CD2        -0.6620    1.2070    0.0000 C.ar      1 3CP1        0.0000
      7 HE1         3.1690    1.1500    0.0000 H         1 3CP1        0.0000
      8 HG         -0.5700   -0.9620    0.0000 H         1 3CP1        0.0000
      9 HD2        -1.7370    1.2720   -0.0000 H         1 3CP1        0.0000
     10 HE2        -0.3430    3.3430   -0.0000 H         1 3CP1        0.0000
     11 CD3         2.1950   -1.3830    0.0000 C.2       1 3CP1        0.0000
     12 O1          3.4530   -1.2810    0.0000 O.co2     1 3CP1        0.0000
     13 O2          1.5260   -2.4530    0.0000 O.co2     1 3CP1        0.0000
@<TRIPOS>BOND
     1    1    2 ar
     2    1    5 ar
     3    2    3 ar
     4    2    7 1 
     5    3    4 ar
     6    3   11 1 
     7    4    6 ar
     8    4    8 1 
     9    5    6 ar
    10    5   10 1 
    11    6    9 1 
    12   11   12 ar
    13   11   13 ar
