@<TRIPOS>MOLECULE
C:\Users\Praveer\PycharmProjects\pdb_to_mol2_converter\data\pdb\3cyp.pdb
   12    12     0     0     0
SMALL
GASTEIGER

@<TRIPOS>ATOM
      1 NZ          1.4610    2.3140   -0.0000 N.ar      1 3CY1        0.0000
      2 CE1         2.1050    1.1480    0.0000 C.ar      1 3CY1        0.0000
      3 CD1         1.4240   -0.0810    0.0000 C.ar      1 3CY1        0.0000
      4 CG          0.0150   -0.0560    0.0000 C.ar      1 3CY1        0.0000
      5 CD2        -0.6460    1.1840    0.0000 C.ar      1 3CY1        0.0000
      6 CE2         0.1290    2.3550   -0.0000 C.ar      1 3CY1        0.0000
      7 HE1         3.1890    1.1750    0.0000 H         1 3CY1        0.0000
      8 HG         -0.5540   -0.9750    0.0000 H         1 3CY1        0.0000
      9 HD2        -1.7230    1.2420    0.0000 H         1 3CY1        0.0000
     10 HE2        -0.3460    3.3290   -0.0000 H         1 3CY1        0.0000
     11 C3N         2.1740   -1.3040    0.0000 C.1       1 3CY1        0.0000
     12 N3C         2.7950   -2.3080    0.0000 N.1       1 3CY1        0.0000
@<TRIPOS>BOND
     1    1    2 ar
     2    1    6 ar
     3    2    3 ar
     4    2    7 1 
     5    3    4 ar
     6    3   11 1 
     7    4    5 ar
     8    4    8 1 
     9    5    6 ar
    10    5    9 1 
    11    6   10 1 
    12   11   12 3 
