@<TRIPOS>MOLECULE
C:\Users\Praveer\PycharmProjects\pdb_to_mol2_converter\data\pdb\3etp.pdb
   17    17     0     0     0
SMALL
GASTEIGER

@<TRIPOS>ATOM
      1 NZ          1.4370    2.3630   -0.0050 N.ar      1 3ET1        0.0000
      2 CE1         2.0790    1.1940    0.0040 C.ar      1 3ET1        0.0000
      3 CD1         1.4050   -0.0450   -0.0080 C.ar      1 3ET1        0.0000
      4 CG         -0.0020   -0.0170   -0.0190 C.ar      1 3ET1        0.0000
      5 CD2        -0.6670    1.2200   -0.0300 C.ar      1 3ET1        0.0000
      6 CE2         0.1060    2.3920   -0.0230 C.ar      1 3ET1        0.0000
      7 HE1         3.1610    1.2140    0.0210 H         1 3ET1        0.0000
      8 HG         -0.5620   -0.9400   -0.0170 H         1 3ET1        0.0000
      9 HD2        -1.7440    1.2740   -0.0410 H         1 3ET1        0.0000
     10 HE2        -0.3740    3.3630   -0.0290 H         1 3ET1        0.0000
     11 CD3         2.1590   -1.3480    0.0200 C.3       1 3ET1        0.0000
     12 H11         3.1210   -1.2170   -0.5250 H         1 3ET1        0.0000
     13 H12         1.5600   -2.1230   -0.5080 H         1 3ET1        0.0000
     14 C2          2.4130   -1.7550    1.4760 C.3       1 3ET1        0.0000
     15 H21         1.4540   -1.8870    2.0230 H         1 3ET1        0.0000
     16 H22         3.0140   -0.9850    2.0070 H         1 3ET1        0.0000
     17 H23         2.9690   -2.7160    1.5180 H         1 3ET1        0.0000
@<TRIPOS>BOND
     1   12   11 1 
     2   13   11 1 
     3    9    5 1 
     4    5    6 ar
     5    5    4 ar
     6   10    6 1 
     7    6    1 ar
     8    4    8 1 
     9    4    3 ar
    10    3    2 ar
    11    3   11 1 
    12    1    2 ar
    13    2    7 1 
    14   11   14 1 
    15   14   17 1 
    16   14   16 1 
    17   14   15 1 
