@<TRIPOS>MOLECULE
C:\Users\Praveer\PycharmProjects\pdb_to_mol2_converter\data\pdb\3flp.pdb
   11    11     0     0     0
SMALL
GASTEIGER

@<TRIPOS>ATOM
      1 NZ          1.5590    2.3160   -0.0000 N.ar      1 3FL1        0.0000
      2 CE1         2.1660    1.1270    0.0000 C.ar      1 3FL1        0.0000
      3 CD1         1.4330   -0.0650    0.0000 C.ar      1 3FL1        0.0000
      4 CG          0.0370   -0.0240    0.0000 C.ar      1 3FL1        0.0000
      5 CE2         0.2290    2.3790   -0.0000 C.ar      1 3FL1        0.0000
      6 CD2        -0.5870    1.2340    0.0000 C.ar      1 3FL1        0.0000
      7 HE1         3.2480    1.1110    0.0000 H         1 3FL1        0.0000
      8 F1          2.0730   -1.2640    0.0000 F         1 3FL1        0.0000
      9 HG         -0.5470   -0.9310    0.0000 H         1 3FL1        0.0000
     10 HD2        -1.6610    1.3250    0.0000 H         1 3FL1        0.0000
     11 HE2        -0.2230    3.3640   -0.0000 H         1 3FL1        0.0000
@<TRIPOS>BOND
     1    1    2 ar
     2    1    5 ar
     3    2    3 ar
     4    2    7 1 
     5    3    4 ar
     6    3    8 1 
     7    4    6 ar
     8    4    9 1 
     9    5    6 ar
    10    5   11 1 
    11    6   10 1 
