@<TRIPOS>MOLECULE
C:\Users\Praveer\PycharmProjects\pdb_to_mol2_converter\data\pdb\3hin.pdb
   16    17     0     0     0
SMALL
GASTEIGER

@<TRIPOS>ATOM
      1 N1         -0.0960    0.1760   -0.0000 N.2       1 3HI1        0.0000
      2 C2          1.2250    0.0680   -0.0000 C.2       1 3HI1        0.0000
      3 H2          1.7300   -0.8920   -0.0000 H         1 3HI1        0.0000
      4 C3          1.9140    1.4030    0.0000 C.3       1 3HI1        0.0000
      5 H31         2.5550    1.5290   -0.8830 H         1 3HI1        0.0000
      6 H32         2.5550    1.5290    0.8830 H         1 3HI1        0.0000
      7 C4          0.7240    2.3190    0.0000 C.ar      1 3HI1        0.0000
      8 C5          0.6360    3.7060    0.0000 C.ar      1 3HI1        0.0000
      9 H5          1.5340    4.3060    0.0000 H         1 3HI1        0.0000
     10 C6         -0.6320    4.3020    0.0000 C.ar      1 3HI1        0.0000
     11 H6         -0.7270    5.3810    0.0000 H         1 3HI1        0.0000
     12 C7         -1.7860    3.5050    0.0000 C.ar      1 3HI1        0.0000
     13 H7         -2.7630    3.9730    0.0000 H         1 3HI1        0.0000
     14 C8         -1.6760    2.1060    0.0000 C.ar      1 3HI1        0.0000
     15 H8         -2.5420    1.4620    0.0000 H         1 3HI1        0.0000
     16 C9         -0.4280    1.5150    0.0000 C.ar      1 3HI1        0.0000
@<TRIPOS>BOND
     1    5    4 1 
     2    1    2 2 
     3    1   16 1 
     4    2    3 1 
     5    2    4 1 
     6    4    7 1 
     7    4    6 1 
     8    7    8 ar
     9    7   16 ar
    10    8    9 1 
    11    8   10 ar
    12   10   11 1 
    13   10   12 ar
    14   12   13 1 
    15   12   14 ar
    16   14   15 1 
    17   14   16 ar
