@<TRIPOS>MOLECULE
C:\Users\Praveer\PycharmProjects\pdb_to_mol2_converter\data\pdb\3hop.pdb
   12    12     0     0     0
SMALL
GASTEIGER

@<TRIPOS>ATOM
      1 NZ          1.4610    2.3370   -0.0000 N.ar      1 3HO1        0.0000
      2 CE1         2.1080    1.1680    0.0000 C.ar      1 3HO1        0.0000
      3 CG          0.0330   -0.0550    0.0000 C.ar      1 3HO1        0.0000
      4 CD2        -0.6380    1.1810   -0.0000 C.ar      1 3HO1        0.0000
      5 CE2         0.1300    2.3580   -0.0000 C.ar      1 3HO1        0.0000
      6 HE1         3.1900    1.1850    0.0000 H         1 3HO1        0.0000
      7 HG         -0.5310   -0.9760    0.0000 H         1 3HO1        0.0000
      8 HD2        -1.7150    1.2310   -0.0000 H         1 3HO1        0.0000
      9 HE2        -0.3560    3.3260   -0.0000 H         1 3HO1        0.0000
     10 CD1         1.4370   -0.0730    0.0000 C.ar      1 3HO1        0.0000
     11 OH          2.1450   -1.2970    0.0000 O.3       1 3HO1        0.0000
     12 HO1         1.5040   -2.0110    0.0000 H         1 3HO1        0.0000
@<TRIPOS>BOND
     1    1    2 ar
     2    1    5 ar
     3    2    6 1 
     4    2   10 ar
     5    3    4 ar
     6    3    7 1 
     7    3   10 ar
     8    4    5 ar
     9    4    8 1 
    10    5    9 1 
    11   10   11 1 
    12   11   12 1 
