@<TRIPOS>MOLECULE
C:\Users\Praveer\PycharmProjects\pdb_to_mol2_converter\data\pdb\3hpr.pdb
   10    10     0     0     0
SMALL
GASTEIGER

@<TRIPOS>ATOM
      1 N1          0.8770    2.1390   -0.0000 N.2       1 3HP1        0.0000
      2 C2         -0.2430    1.4400    0.0000 C.2       1 3HP1        0.0000
      3 H2         -1.2260    1.8950   -0.0000 H         1 3HP1        0.0000
      4 C3          0.0310   -0.0270   -0.0000 C.3       1 3HP1        0.0000
      5 H31        -0.3970   -0.5230   -0.8840 H         1 3HP1        0.0000
      6 H32        -0.3970   -0.5230    0.8840 H         1 3HP1        0.0000
      7 C4          1.5310   -0.0360    0.0000 C.2       1 3HP1        0.0000
      8 H4          2.1570   -0.9140   -0.0000 H         1 3HP1        0.0000
      9 C5          1.9540    1.2580   -0.0000 C.2       1 3HP1        0.0000
     10 H5          2.9630    1.6600   -0.0000 H         1 3HP1        0.0000
@<TRIPOS>BOND
     1    5    4 1 
     2    1    2 2 
     3    1    9 1 
     4    2    3 1 
     5    2    4 1 
     6    4    7 1 
     7    4    6 1 
     8    7    8 1 
     9    7    9 2 
    10    9   10 1 
