@<TRIPOS>MOLECULE
C:\Users\Praveer\PycharmProjects\pdb_to_mol2_converter\data\pdb\3mep.pdb
   14    14     0     0     0
SMALL
GASTEIGER

@<TRIPOS>ATOM
      1 NZ          1.4480    2.3510   -0.0220 N.ar      1 3ME1        0.0000
      2 CE1         2.0970    1.1860   -0.0160 C.ar      1 3ME1        0.0000
      3 CD1         1.4290   -0.0570   -0.0010 C.ar      1 3ME1        0.0000
      4 CG          0.0240   -0.0380    0.0190 C.ar      1 3ME1        0.0000
      5 CD2        -0.6490    1.1950    0.0140 C.ar      1 3ME1        0.0000
      6 CE2         0.1160    2.3720   -0.0100 C.ar      1 3ME1        0.0000
      7 HE1         3.1790    1.2140   -0.0250 H         1 3ME1        0.0000
      8 HG         -0.5300   -0.9640    0.0370 H         1 3ME1        0.0000
      9 HD2        -1.7260    1.2420    0.0270 H         1 3ME1        0.0000
     10 HE2        -0.3700    3.3400   -0.0170 H         1 3ME1        0.0000
     11 CD3         2.1750   -1.3590    0.0060 C.3       1 3ME1        0.0000
     12 H31         2.2710   -1.7110    1.0560 H         1 3ME1        0.0000
     13 H32         3.1840   -1.2160   -0.4390 H         1 3ME1        0.0000
     14 H33         1.6140   -2.1090   -0.5930 H         1 3ME1        0.0000
@<TRIPOS>BOND
     1   14   11 1 
     2   13   11 1 
     3    7    2 1 
     4    1    2 ar
     5    1    6 ar
     6   10    6 1 
     7    2    3 ar
     8    6    5 ar
     9    3   11 1 
    10    3    4 ar
    11   11   12 1 
    12    5    4 ar
    13    5    9 1 
    14    4    8 1 
