@<TRIPOS>MOLECULE
C:\Users\Praveer\PycharmProjects\pdb_to_mol2_converter\data\pdb\3nap.pdb
   15    15     0     0     0
SMALL
GASTEIGER

@<TRIPOS>ATOM
      1 NZ          1.3800    2.4070   -0.0000 N.ar      1 3NA1        0.0000
      2 CE1         2.0630    1.2640    0.0000 C.ar      1 3NA1        0.0000
      3 CD1         1.4380   -0.0030    0.0000 C.ar      1 3NA1        0.0000
      4 CG          0.0230   -0.0150    0.0000 C.ar      1 3NA1        0.0000
      5 CD2        -0.6810    1.1990    0.0000 C.ar      1 3NA1        0.0000
      6 CE2         0.0500    2.3950   -0.0000 C.ar      1 3NA1        0.0000
      7 HE1         3.1430    1.3450    0.0000 H         1 3NA1        0.0000
      8 HG         -0.5250   -0.9480    0.0000 H         1 3NA1        0.0000
      9 HD2        -1.7600    1.2160   -0.0000 H         1 3NA1        0.0000
     10 HE2        -0.4620    3.3500   -0.0000 H         1 3NA1        0.0000
     11 C           2.1940   -1.2960    0.0000 C.2       1 3NA1        0.0000
     12 O           1.6210   -2.3860    0.0000 O.2       1 3NA1        0.0000
     13 N           3.5560   -1.2420    0.0000 N.am      1 3NA1        0.0000
     14 HC          4.0270   -2.1210    0.0000 H         1 3NA1        0.0000
     15 HT          4.0400   -0.3750    0.0000 H         1 3NA1        0.0000
@<TRIPOS>BOND
     1    1    2 ar
     2    1    6 ar
     3    2    3 ar
     4    2    7 1 
     5    3    4 ar
     6    3   11 1 
     7    4    5 ar
     8    4    8 1 
     9    5    6 ar
    10    5    9 1 
    11    6   10 1 
    12   11   12 2 
    13   11   13 am
    14   13   14 1 
    15   13   15 1 
