@<TRIPOS>MOLECULE
C:\Users\Praveer\PycharmProjects\pdb_to_mol2_converter\data\pdb\3ph2sr.pdb
   22    23     0     0     0
SMALL
GASTEIGER

@<TRIPOS>ATOM
      1 N1          1.2690    2.2830   -0.0000 N.ar      1 3PH1        0.0000
      2 C2         -0.1600    2.2080    0.0000 C.ar      1 3PH1        0.0000
      3 O2         -0.8890    3.1950    0.0000 O.2       1 3PH1        0.0000
      4 C3         -0.8040    0.9400   -0.0000 C.ar      1 3PH1        0.0000
      5 H3         -1.8900    0.9060   -0.0000 H         1 3PH1        0.0000
      6 C4         -0.0630   -0.1880   -0.0000 C.ar      1 3PH1        0.0000
      7 H4         -0.5330   -1.1750   -0.0000 H         1 3PH1        0.0000
      8 N5          1.2750   -0.1350   -0.0000 N.ar      1 3PH1        0.0000
      9 H5          1.8570   -0.9600    0.0000 H         1 3PH1        0.0000
     10 C6          2.0000    1.0470   -0.0000 C.ar      1 3PH1        0.0000
     11 S6          3.5920    0.5950    0.0000 S.2       1 3PH1        0.0000
     12 C7          1.9350    3.6230   -0.0000 C.ar      1 3PH1        0.0000
     13 C8          3.3610    3.8220    0.0000 C.ar      1 3PH1        0.0000
     14 C9          4.0180    5.0690   -0.0000 C.ar      1 3PH1        0.0000
     15 C10         3.2760    6.2400   -0.0000 C.ar      1 3PH1        0.0000
     16 C11         1.8910    6.1640   -0.0000 C.ar      1 3PH1        0.0000
     17 C12         1.2580    4.9050   -0.0000 C.ar      1 3PH1        0.0000
     18 H8          4.0710    3.0290    0.0000 H         1 3PH1        0.0000
     19 H9          5.0990    5.1100    0.0000 H         1 3PH1        0.0000
     20 H10         3.7710    7.2020   -0.0000 H         1 3PH1        0.0000
     21 H11         1.2970    7.0680   -0.0000 H         1 3PH1        0.0000
     22 H12         0.1920    5.0320   -0.0000 H         1 3PH1        0.0000
@<TRIPOS>BOND
     1    1    2 ar
     2    1   10 ar
     3    1   12 1 
     4    2    3 2 
     5    2    4 ar
     6    4    5 1 
     7    4    6 ar
     8    6    7 1 
     9    6    8 ar
    10    8    9 1 
    11    8   10 ar
    12   10   11 2 
    13   12   13 ar
    14   12   17 ar
    15   13   14 ar
    16   13   18 1 
    17   14   15 ar
    18   14   19 1 
    19   15   16 ar
    20   15   20 1 
    21   16   17 ar
    22   16   21 1 
    23   17   22 1 
