@<TRIPOS>MOLECULE
C:\Users\Praveer\PycharmProjects\pdb_to_mol2_converter\data\pdb\3ph24s.pdb
   22    23     0     0     0
SMALL
GASTEIGER

@<TRIPOS>ATOM
      1 N1          1.3570    2.3180   -0.0000 N.ar      1 3PH1        0.0000
      2 C2         -0.0960    2.2780    0.0000 C.ar      1 3PH1        0.0000
      3 S2         -1.3210    3.4070    0.0000 S.2       1 3PH1        0.0000
      4 C3         -0.7570    0.9800   -0.0000 C.ar      1 3PH1        0.0000
      5 H3         -1.8390    0.9360   -0.0000 H         1 3PH1        0.0000
      6 C4         -0.0530   -0.1920   -0.0000 C.ar      1 3PH1        0.0000
      7 H4         -0.5260   -1.1650   -0.0000 H         1 3PH1        0.0000
      8 N5          1.3180   -0.1200   -0.0000 N.ar      1 3PH1        0.0000
      9 H5          1.9150   -0.9360    0.0000 H         1 3PH1        0.0000
     10 C6          2.0630    1.0520   -0.0000 C.ar      1 3PH1        0.0000
     11 S6          3.6430    0.5430    0.0000 S.2       1 3PH1        0.0000
     12 C7          2.1020    3.6220   -0.0000 C.ar      1 3PH1        0.0000
     13 C8          3.5400    3.7580    0.0000 C.ar      1 3PH1        0.0000
     14 C9          4.2590    4.9710   -0.0000 C.ar      1 3PH1        0.0000
     15 C10         3.5760    6.1770   -0.0000 C.ar      1 3PH1        0.0000
     16 C11         2.1900    6.1650   -0.0000 C.ar      1 3PH1        0.0000
     17 C12         1.5000    4.9350   -0.0000 C.ar      1 3PH1        0.0000
     18 H8          4.2230    2.9420    0.0000 H         1 3PH1        0.0000
     19 H9          5.3410    4.9600    0.0000 H         1 3PH1        0.0000
     20 H10         4.1160    7.1140   -0.0000 H         1 3PH1        0.0000
     21 H11         1.6390    7.0950   -0.0000 H         1 3PH1        0.0000
     22 H12         0.4520    5.1210   -0.0000 H         1 3PH1        0.0000
@<TRIPOS>BOND
     1    1    2 ar
     2    1   10 ar
     3    1   12 1 
     4    2    3 2 
     5    2    4 ar
     6    4    5 1 
     7    4    6 ar
     8    6    7 1 
     9    6    8 ar
    10    8    9 1 
    11    8   10 ar
    12   10   11 2 
    13   12   13 ar
    14   12   17 ar
    15   13   14 ar
    16   13   18 1 
    17   14   15 ar
    18   14   19 1 
    19   15   16 ar
    20   15   20 1 
    21   16   17 ar
    22   16   21 1 
    23   17   22 1 
