@<TRIPOS>MOLECULE
C:\Users\Praveer\PycharmProjects\pdb_to_mol2_converter\data\pdb\3ph4sr.pdb
   22    23     0     0     0
SMALL
GASTEIGER

@<TRIPOS>ATOM
      1 N1          1.1890    2.3280   -0.0000 N.ar      1 3PH1        0.0000
      2 C2         -0.2470    2.2150    0.0000 C.ar      1 3PH1        0.0000
      3 S2         -1.4860    3.3220    0.0000 S.2       1 3PH1        0.0000
      4 C3         -0.8400    0.9030   -0.0000 C.ar      1 3PH1        0.0000
      5 H3         -1.9250    0.7790   -0.0000 H         1 3PH1        0.0000
      6 C4         -0.0580   -0.2000   -0.0000 C.ar      1 3PH1        0.0000
      7 H4         -0.4990   -1.2020   -0.0000 H         1 3PH1        0.0000
      8 N5          1.2740   -0.0960   -0.0000 N.ar      1 3PH1        0.0000
      9 H5          1.9130   -0.8710   -0.0000 H         1 3PH1        0.0000
     10 C6          1.9250    1.1140   -0.0000 C.ar      1 3PH1        0.0000
     11 O6          3.1480    1.0240   -0.0000 O.2       1 3PH1        0.0000
     12 C7          1.9260    3.6290   -0.0000 C.ar      1 3PH1        0.0000
     13 C8          3.3690    3.7730    0.0000 C.ar      1 3PH1        0.0000
     14 C9          4.0690    4.9950   -0.0000 C.ar      1 3PH1        0.0000
     15 C10         3.3680    6.1920   -0.0000 C.ar      1 3PH1        0.0000
     16 C11         1.9820    6.1640   -0.0000 C.ar      1 3PH1        0.0000
     17 C12         1.3040    4.9290   -0.0000 C.ar      1 3PH1        0.0000
     18 H8          4.0610    2.9530    0.0000 H         1 3PH1        0.0000
     19 H9          5.1510    4.9990    0.0000 H         1 3PH1        0.0000
     20 H10         3.8970    7.1350   -0.0000 H         1 3PH1        0.0000
     21 H11         1.4210    7.0890   -0.0000 H         1 3PH1        0.0000
     22 H12         0.2510    5.0890   -0.0000 H         1 3PH1        0.0000
@<TRIPOS>BOND
     1    1    2 ar
     2    1   10 ar
     3    1   12 1 
     4    2    3 2 
     5    2    4 ar
     6    4    5 1 
     7    4    6 ar
     8    6    7 1 
     9    6    8 ar
    10    8    9 1 
    11    8   10 ar
    12   10   11 2 
    13   12   13 ar
    14   12   17 ar
    15   13   14 ar
    16   13   18 1 
    17   14   15 ar
    18   14   19 1 
    19   15   16 ar
    20   15   20 1 
    21   16   17 ar
    22   16   21 1 
    23   17   22 1 
