@<TRIPOS>MOLECULE
C:\Users\Praveer\PycharmProjects\pdb_to_mol2_converter\data\pdb\3php.pdb
   21    22     0     0     0
SMALL
GASTEIGER

@<TRIPOS>ATOM
      1 NZ          1.4090    2.4140    0.0000 N.ar      1 3PH1        0.0000
      2 CE1         2.0340    1.2370    0.0000 C.ar      1 3PH1        0.0000
      3 CD1         1.3700   -0.0170    0.0000 C.ar      1 3PH1        0.0000
      4 CG         -0.0490    0.0550    0.0000 C.ar      1 3PH1        0.0000
      5 CD2        -0.7030    1.2990    0.0000 C.ar      1 3PH1        0.0000
      6 CE2         0.0810    2.4600   -0.0000 C.ar      1 3PH1        0.0000
      7 HE1         3.1160    1.2790    0.0000 H         1 3PH1        0.0000
      8 HG         -0.6590   -0.8350    0.0000 H         1 3PH1        0.0000
      9 HD2        -1.7790    1.3640   -0.0000 H         1 3PH1        0.0000
     10 HE2        -0.3880    3.4360   -0.0000 H         1 3PH1        0.0000
     11 CA1         2.1430   -1.3370    0.0000 C.ar      1 3PH1        0.0000
     12 CA2         1.4780   -2.5910    0.0000 C.ar      1 3PH1        0.0000
     13 CA3         2.1900   -3.8010    0.0000 C.ar      1 3PH1        0.0000
     14 CA4         3.5870   -3.7880    0.0000 C.ar      1 3PH1        0.0000
     15 CA5         4.2760   -2.5730   -0.0000 C.ar      1 3PH1        0.0000
     16 CA6         3.5630   -1.3640   -0.0000 C.ar      1 3PH1        0.0000
     17 HA2         0.4010   -2.6520    0.0000 H         1 3PH1        0.0000
     18 HA3         1.6580   -4.7410    0.0000 H         1 3PH1        0.0000
     19 HA4         4.1360   -4.7200    0.0000 H         1 3PH1        0.0000
     20 HA5         5.3560   -2.5630   -0.0000 H         1 3PH1        0.0000
     21 HA6         4.1390   -0.4500   -0.0000 H         1 3PH1        0.0000
@<TRIPOS>BOND
     1    1    2 ar
     2    1    6 ar
     3    2    3 ar
     4    2    7 1 
     5    3    4 ar
     6    3   11 1 
     7    4    5 ar
     8    4    8 1 
     9    5    6 ar
    10    5    9 1 
    11    6   10 1 
    12   11   12 ar
    13   11   16 ar
    14   12   13 ar
    15   12   17 1 
    16   13   14 ar
    17   13   18 1 
    18   14   15 ar
    19   14   19 1 
    20   15   16 ar
    21   15   20 1 
    22   16   21 1 
