@<TRIPOS>MOLECULE
C:\Users\Praveer\PycharmProjects\pdb_to_mol2_converter\data\pdb\3phura.pdb
   22    23     0     0     0
SMALL
GASTEIGER

@<TRIPOS>ATOM
      1 N1          1.2210    2.2900   -0.0000 N.ar      1 3PH1        0.0000
      2 C2         -0.1960    2.2000    0.0000 C.ar      1 3PH1        0.0000
      3 O2         -0.9230    3.1870    0.0000 O.2       1 3PH1        0.0000
      4 C3         -0.8230    0.9190   -0.0000 C.ar      1 3PH1        0.0000
      5 H3         -1.9080    0.8600   -0.0000 H         1 3PH1        0.0000
      6 C4         -0.0620   -0.1990   -0.0000 C.ar      1 3PH1        0.0000
      7 H4         -0.5190   -1.1920   -0.0000 H         1 3PH1        0.0000
      8 N5          1.2760   -0.1170   -0.0000 N.ar      1 3PH1        0.0000
      9 H5          1.9040   -0.9020   -0.0000 H         1 3PH1        0.0000
     10 C6          1.9440    1.0840   -0.0000 C.ar      1 3PH1        0.0000
     11 O6          3.1640    0.9940   -0.0000 O.2       1 3PH1        0.0000
     12 C7          1.9220    3.6040   -0.0000 C.ar      1 3PH1        0.0000
     13 C8          3.3570    3.7670    0.0000 C.ar      1 3PH1        0.0000
     14 C9          4.0320    5.0040   -0.0000 C.ar      1 3PH1        0.0000
     15 C10         3.3060    6.1870   -0.0000 C.ar      1 3PH1        0.0000
     16 C11         1.9190    6.1350   -0.0000 C.ar      1 3PH1        0.0000
     17 C12         1.2630    4.8890   -0.0000 C.ar      1 3PH1        0.0000
     18 H8          4.0520    2.9500    0.0000 H         1 3PH1        0.0000
     19 H9          5.1130    5.0300    0.0000 H         1 3PH1        0.0000
     20 H10         3.8170    7.1400   -0.0000 H         1 3PH1        0.0000
     21 H11         1.3410    7.0490   -0.0000 H         1 3PH1        0.0000
     22 H12         0.1980    5.0150   -0.0000 H         1 3PH1        0.0000
@<TRIPOS>BOND
     1    1    2 ar
     2    1   10 ar
     3    1   12 1 
     4    2    3 2 
     5    2    4 ar
     6    4    5 1 
     7    4    6 ar
     8    6    7 1 
     9    6    8 ar
    10    8    9 1 
    11    8   10 ar
    12   10   11 2 
    13   12   13 ar
    14   12   17 ar
    15   13   14 ar
    16   13   18 1 
    17   14   15 ar
    18   14   19 1 
    19   15   16 ar
    20   15   20 1 
    21   16   17 ar
    22   16   21 1 
    23   17   22 1 
