@<TRIPOS>MOLECULE
C:\Users\Praveer\PycharmProjects\pdb_to_mol2_converter\data\pdb\3prl.pdb
   12    12     0     0     0
SMALL
GASTEIGER

@<TRIPOS>ATOM
      1 N1         -0.4670    1.4110    0.2240 N.3       1 3PR1        0.0000
      2 H1         -0.6420    1.4760    1.2250 H         1 3PR1        0.0000
      3 C2         -0.0450    0.0160   -0.0390 C.3       1 3PR1        0.0000
      4 H21        -0.3980   -0.2890   -1.0390 H         1 3PR1        0.0000
      5 H22        -0.5250   -0.6650    0.6840 H         1 3PR1        0.0000
      6 C3          1.4540    0.0230    0.0700 C.2       1 3PR1        0.0000
      7 H3          2.0620   -0.8690    0.0350 H         1 3PR1        0.0000
      8 C4          1.9010    1.3050    0.0650 C.2       1 3PR1        0.0000
      9 H4          2.9310    1.6270    0.0260 H         1 3PR1        0.0000
     10 C5          0.7290    2.2410   -0.0470 C.3       1 3PR1        0.0000
     11 H51         0.7780    3.0780    0.6690 H         1 3PR1        0.0000
     12 H52         0.6400    2.6920   -1.0510 H         1 3PR1        0.0000
@<TRIPOS>BOND
     1   12   10 1 
     2    4    3 1 
     3   10    8 1 
     4   10    1 1 
     5   10   11 1 
     6    3    6 1 
     7    3    1 1 
     8    3    5 1 
     9    9    8 1 
    10    7    6 1 
    11    8    6 2 
    12    1    2 1 
