@<TRIPOS>MOLECULE
C:\Users\Praveer\PycharmProjects\pdb_to_mol2_converter\data\pdb\3prp.pdb
   13    13     0     0     0
SMALL
GASTEIGER

@<TRIPOS>ATOM
      1 N1         -0.3670    1.3450    0.4110 N.4       1 3PR1        0.0000
      2 H11        -0.3860    1.3460    1.4240 H         1 3PR1        0.0000
      3 H12        -1.2820    1.6570    0.1120 H         1 3PR1        0.0000
      4 C2         -0.0300   -0.0860    0.0230 C.3       1 3PR1        0.0000
      5 H21        -0.4460   -0.3460   -0.9870 H         1 3PR1        0.0000
      6 H22        -0.4460   -0.8430    0.7420 H         1 3PR1        0.0000
      7 C3          1.4640    0.0030    0.0100 C.2       1 3PR1        0.0000
      8 H3          2.1180   -0.8670   -0.0620 H         1 3PR1        0.0000
      9 C4          1.9040    1.2990    0.0160 C.2       1 3PR1        0.0000
     10 H4          2.9520    1.5920   -0.0510 H         1 3PR1        0.0000
     11 C5          0.7730    2.2790    0.0350 C.3       1 3PR1        0.0000
     12 H51         0.9010    3.1250    0.7620 H         1 3PR1        0.0000
     13 H52         0.6030    2.7480   -0.9720 H         1 3PR1        0.0000
@<TRIPOS>BOND
     1    5    4 1 
     2   13   11 1 
     3    8    7 1 
     4   10    9 1 
     5    7    9 2 
     6    7    4 1 
     7    9   11 1 
     8    4    1 1 
     9    4    6 1 
    10   11    1 1 
    11   11   12 1 
    12    3    1 1 
    13    1    2 1 
