@<TRIPOS>MOLECULE
C:\Users\Praveer\PycharmProjects\pdb_to_mol2_converter\data\pdb\3pru.pdb
   21    21     0     0     0
SMALL
GASTEIGER

@<TRIPOS>ATOM
      1 N1          1.3480   -0.0080    0.0020 N.ar      1 3PR1        0.0000
      2 H1          1.9180   -0.8380   -0.0090 H         1 3PR1        0.0000
      3 C2          2.0790    1.1600   -0.0010 C.ar      1 3PR1        0.0000
      4 O2          3.3060    1.1120   -0.0180 O.2       1 3PR1        0.0000
      5 N3          1.3670    2.3560    0.0170 N.ar      1 3PR1        0.0000
      6 C4         -0.0370    2.4080   -0.0070 C.ar      1 3PR1        0.0000
      7 O4         -0.6140    3.4960   -0.0320 O.2       1 3PR1        0.0000
      8 C5         -0.7280    1.1540    0.0010 C.ar      1 3PR1        0.0000
      9 H5         -1.8160    1.1250   -0.0090 H         1 3PR1        0.0000
     10 C6         -0.0090   -0.0060    0.0040 C.ar      1 3PR1        0.0000
     11 H6         -0.5190   -0.9740    0.0020 H         1 3PR1        0.0000
     12 C7          2.1240    3.6200   -0.0140 C.3       1 3PR1        0.0000
     13 H71         3.0830    3.4790    0.5360 H         1 3PR1        0.0000
     14 H72         1.5490    4.3980    0.5400 H         1 3PR1        0.0000
     15 C8          2.4070    4.0960   -1.4460 C.3       1 3PR1        0.0000
     16 H81         1.4370    4.2310   -1.9780 H         1 3PR1        0.0000
     17 H82         2.9770    3.3030   -1.9830 H         1 3PR1        0.0000
     18 C9          3.1970    5.4080   -1.5110 C.3       1 3PR1        0.0000
     19 H91         4.1820    5.2940   -1.0090 H         1 3PR1        0.0000
     20 H92         2.6360    6.2230   -1.0050 H         1 3PR1        0.0000
     21 H93         3.3720    5.7060   -2.5670 H         1 3PR1        0.0000
@<TRIPOS>BOND
     1   21   18 1 
     2   17   15 1 
     3   16   15 1 
     4   18   15 1 
     5   18   19 1 
     6   18   20 1 
     7   15   12 1 
     8    7    6 2 
     9    4    3 2 
    10   12    5 1 
    11   12   13 1 
    12   12   14 1 
    13    2    1 1 
    14    9    8 1 
    15    6    8 ar
    16    6    5 ar
    17    3    1 ar
    18    3    5 ar
    19    8   10 ar
    20    1   10 ar
    21   11   10 1 
