@<TRIPOS>MOLECULE
C:\Users\Praveer\PycharmProjects\pdb_to_mol2_converter\data\pdb\43hpy.pdb
   11    11     0     0     0
SMALL
GASTEIGER

@<TRIPOS>ATOM
      1 C6         -0.4040    1.5160    0.0000 C.ar      1 43H1        0.0000
      2 C5          0.5300    2.5250   -0.0000 C.ar      1 43H1        0.0000
      3 N4          1.9090    2.3040    0.0000 N.ar      1 43H1        0.0000
      4 C3          2.3440    1.0160    0.0000 C.ar      1 43H1        0.0000
      5 N2          1.4050   -0.0120    0.0000 N.ar      1 43H1        0.0000
      6 H2          1.7060   -0.9690    0.0000 H         1 43H1        0.0000
      7 C1          0.0400    0.1600    0.0000 C.ar      1 43H1        0.0000
      8 O1         -0.6820   -0.8310   -0.0000 O.2       1 43H1        0.0000
      9 H6         -1.4650    1.7450    0.0000 H         1 43H1        0.0000
     10 H5          0.1830    3.5570   -0.0000 H         1 43H1        0.0000
     11 H3          3.4170    0.8060    0.0000 H         1 43H1        0.0000
@<TRIPOS>BOND
     1    1    2 ar
     2    1    7 ar
     3    1    9 1 
     4    2    3 ar
     5    2   10 1 
     6    3    4 ar
     7    4    5 ar
     8    4   11 1 
     9    5    6 1 
    10    5    7 ar
    11    7    8 2 
