@<TRIPOS>MOLECULE
C:\Users\Praveer\PycharmProjects\pdb_to_mol2_converter\data\pdb\43hspy.pdb
   11    11     0     0     0
SMALL
GASTEIGER

@<TRIPOS>ATOM
      1 C6         -0.3890    1.4500    0.0000 C.3       1 43H1        0.0000
      2 C5          0.5730    2.4840    0.0000 C.2       1 43H1        0.0000
      3 N4          1.9010    2.2910    0.0000 N.2       1 43H1        0.0000
      4 C3          2.3420    0.9910    0.0000 C.3       1 43H1        0.0000
      5 N2          1.4210   -0.0740    0.0000 N.am      1 43H1        0.0000
      6 H2          1.7870   -1.0110    0.0000 H         1 43H1        0.0000
      7 C1          0.0280    0.0520    0.0000 C.2       1 43H1        0.0000
      8 S1         -0.9700   -1.2620    0.0000 S.2       1 43H1        0.0000
      9 H6         -1.4400    1.6780    0.0000 H         1 43H1        0.0000
     10 H5          0.2280    3.5120   -0.0000 H         1 43H1        0.0000
     11 H3          3.4160    0.7980    0.0000 H         1 43H1        0.0000
@<TRIPOS>BOND
     1    1    2 1 
     2    1    7 1 
     3    1    9 1 
     4    2    3 2 
     5    2   10 1 
     6    3    4 1 
     7    4    5 1 
     8    4   11 1 
     9    5    6 1 
    10    5    7 1 
    11    7    8 2 
