@<TRIPOS>MOLECULE
C:\Users\Praveer\PycharmProjects\pdb_to_mol2_converter\data\pdb\43hspp.pdb
   21    22     0     0     0
SMALL
GASTEIGER

@<TRIPOS>ATOM
      1 N1          0.8160    2.4790   -0.0000 N.am      1 43H1        0.0000
      2 C2         -0.5950    2.2360    0.0000 C.2       1 43H1        0.0000
      3 S2         -1.9240    3.2310    0.0000 S.2       1 43H1        0.0000
      4 C3         -0.9880    0.8300   -0.0000 C.3       1 43H1        0.0000
      5 H3         -2.0340    0.5700   -0.0000 H         1 43H1        0.0000
      6 C4         -0.0280   -0.1800   -0.0000 C.2       1 43H1        0.0000
      7 H4         -0.3620   -1.2140   -0.0000 H         1 43H1        0.0000
      8 N5          1.2840    0.0230   -0.0000 N.2       1 43H1        0.0000
      9 C6          1.6770    1.3320   -0.0000 C.3       1 43H1        0.0000
     10 H6          2.7560    1.4440   -0.0000 H         1 43H1        0.0000
     11 C7          1.4630    3.8050   -0.0000 C.ar      1 43H1        0.0000
     12 C8          2.8980    3.9460    0.0000 C.ar      1 43H1        0.0000
     13 C9          3.5650    5.1830   -0.0000 C.ar      1 43H1        0.0000
     14 C10         2.8300    6.3640   -0.0000 C.ar      1 43H1        0.0000
     15 C11         1.4400    6.3100   -0.0000 C.ar      1 43H1        0.0000
     16 C12         0.7850    5.0650   -0.0000 C.ar      1 43H1        0.0000
     17 H8          3.5670    3.1010    0.0000 H         1 43H1        0.0000
     18 H9          4.6460    5.2200    0.0000 H         1 43H1        0.0000
     19 H10         3.3350    7.3200   -0.0000 H         1 43H1        0.0000
     20 H11         0.8610    7.2230   -0.0000 H         1 43H1        0.0000
     21 H12        -0.2810    5.1540   -0.0000 H         1 43H1        0.0000
@<TRIPOS>BOND
     1    1    2 1 
     2    1    9 1 
     3    1   11 1 
     4    2    3 2 
     5    2    4 1 
     6    4    5 1 
     7    4    6 1 
     8    6    7 1 
     9    6    8 2 
    10    8    9 1 
    11    9   10 1 
    12   11   12 ar
    13   11   16 ar
    14   12   13 ar
    15   12   17 1 
    16   13   14 ar
    17   13   18 1 
    18   14   15 ar
    19   14   19 1 
    20   15   16 ar
    21   15   20 1 
    22   16   21 1 
