@<TRIPOS>MOLECULE
C:\Users\Praveer\PycharmProjects\pdb_to_mol2_converter\data\pdb\43ppy.pdb
   21    22     0     0     0
SMALL
GASTEIGER

@<TRIPOS>ATOM
      1 N1          1.1320    2.4610   -0.0000 N.ar      1 43P1        0.0000
      2 C2         -0.2690    2.3530    0.0000 C.ar      1 43P1        0.0000
      3 O2         -0.9990    3.3390    0.0000 O.2       1 43P1        0.0000
      4 C3         -0.8560    1.0540   -0.0000 C.ar      1 43P1        0.0000
      5 H3         -1.9370    0.9490   -0.0000 H         1 43P1        0.0000
      6 C4         -0.0560   -0.0480   -0.0000 C.ar      1 43P1        0.0000
      7 H4         -0.5250   -1.0320   -0.0000 H         1 43P1        0.0000
      8 N5          1.3210    0.0140   -0.0000 N.ar      1 43P1        0.0000
      9 C6          1.8690    1.2500   -0.0000 C.ar      1 43P1        0.0000
     10 H6          2.9580    1.2540   -0.0000 H         1 43P1        0.0000
     11 C7          1.8510    3.7410   -0.0000 C.ar      1 43P1        0.0000
     12 C8          3.2880    3.7810    0.0000 C.ar      1 43P1        0.0000
     13 C9          4.0310    4.9740   -0.0000 C.ar      1 43P1        0.0000
     14 C10         3.3730    6.2000   -0.0000 C.ar      1 43P1        0.0000
     15 C11         1.9810    6.2380   -0.0000 C.ar      1 43P1        0.0000
     16 C12         1.2450    5.0400   -0.0000 C.ar      1 43P1        0.0000
     17 H8          3.8870    2.8860    0.0000 H         1 43P1        0.0000
     18 H9          5.1130    4.9410    0.0000 H         1 43P1        0.0000
     19 H10         3.9390    7.1210   -0.0000 H         1 43P1        0.0000
     20 H11         1.4640    7.1880   -0.0000 H         1 43P1        0.0000
     21 H12         0.1800    5.1880   -0.0000 H         1 43P1        0.0000
@<TRIPOS>BOND
     1    1    2 ar
     2    1    9 ar
     3    1   11 1 
     4    2    3 2 
     5    2    4 ar
     6    4    5 1 
     7    4    6 ar
     8    6    7 1 
     9    6    8 ar
    10    8    9 ar
    11    9   10 1 
    12   11   12 ar
    13   11   16 ar
    14   12   13 ar
    15   12   17 1 
    16   13   14 ar
    17   13   18 1 
    18   14   15 ar
    19   14   19 1 
    20   15   16 ar
    21   15   20 1 
    22   16   21 1 
