@<TRIPOS>MOLECULE
C:\Users\Praveer\PycharmProjects\pdb_to_mol2_converter\data\pdb\4ap2.pdb
   13    13     0     0     0
SMALL
GASTEIGER

@<TRIPOS>ATOM
      1 NZ          1.4670    2.3230   -0.0000 N.ar      1 4AP1        0.0000
      2 CE1         2.1040    1.1530   -0.0000 C.ar      1 4AP1        0.0000
      3 CD1         1.4150   -0.0690    0.0000 C.ar      1 4AP1        0.0000
      4 CG          0.0140   -0.0390    0.0000 C.ar      1 4AP1        0.0000
      5 CE2         0.1360    2.3640   -0.0000 C.ar      1 4AP1        0.0000
      6 CD2        -0.6440    1.1970    0.0000 C.ar      1 4AP1        0.0000
      7 NG         -0.7120   -1.2200    0.0000 N.pl3     1 4AP1        0.0000
      8 HE1         3.1870    1.1700   -0.0000 H         1 4AP1        0.0000
      9 HD1         1.9580   -0.9990    0.0000 H         1 4AP1        0.0000
     10 HD2        -1.7190    1.2620    0.0000 H         1 4AP1        0.0000
     11 HE2        -0.3370    3.3380   -0.0000 H         1 4AP1        0.0000
     12 HG11       -0.1860   -2.0690   -0.0000 H         1 4AP1        0.0000
     13 HG12       -1.7070   -1.1340   -0.0000 H         1 4AP1        0.0000
@<TRIPOS>BOND
     1    1    2 ar
     2    1    5 ar
     3    2    3 ar
     4    2    8 1 
     5    3    4 ar
     6    3    9 1 
     7    4    6 ar
     8    4    7 1 
     9    5    6 ar
    10    5   11 1 
    11    6   10 1 
    12    7   12 1 
    13    7   13 1 
