@<TRIPOS>MOLECULE
C:\Users\Praveer\PycharmProjects\pdb_to_mol2_converter\data\pdb\4cyt.pdb
   16    16     0     0     0
SMALL
GASTEIGER

@<TRIPOS>ATOM
      1 CG          0.0110    0.0190    0.0010 C.ar      1 4CY1        0.0000
      2 C3N        -0.7100   -1.2300    0.0000 C.1       1 4CY1        0.0000
      3 N3C        -1.3000   -2.2520   -0.0000 N.1       1 4CY1        0.0000
      4 CD1         1.4170    0.0250    0.0010 C.ar      1 4CY1        0.0000
      5 HD1         1.9680   -0.9060   -0.0010 H         1 4CY1        0.0000
      6 CD2        -0.6870    1.2390    0.0010 C.ar      1 4CY1        0.0000
      7 HD2        -1.7680    1.2510   -0.0010 H         1 4CY1        0.0000
      8 CE1         2.1160    1.2400    0.0010 C.ar      1 4CY1        0.0000
      9 HE1         3.1960    1.2430   -0.0020 H         1 4CY1        0.0000
     10 CE2         0.0160    2.4520    0.0010 C.ar      1 4CY1        0.0000
     11 HE2        -0.5210    3.3890   -0.0020 H         1 4CY1        0.0000
     12 CZ          1.4180    2.4560    0.0050 C.ar      1 4CY1        0.0000
     13 CT          2.1670    3.7530   -0.0070 C.3       1 4CY1        0.0000
     14 H11         2.3400    4.0530   -1.0620 H         1 4CY1        0.0000
     15 H12         3.1400    3.6280    0.5150 H         1 4CY1        0.0000
     16 H13         1.5720    4.5330    0.5150 H         1 4CY1        0.0000
@<TRIPOS>BOND
     1   14   13 1 
     2   13   12 1 
     3   13   15 1 
     4   13   16 1 
     5    9    8 1 
     6   11   10 1 
     7    5    4 1 
     8    7    6 1 
     9    2    3 3 
    10    2    1 1 
    11    1    4 ar
    12    1    6 ar
    13    4    8 ar
    14    6   10 ar
    15    8   12 ar
    16   10   12 ar
