@<TRIPOS>MOLECULE
C:\Users\Praveer\PycharmProjects\pdb_to_mol2_converter\data\pdb\4mep.pdb
   14    14     0     0     0
SMALL
GASTEIGER

@<TRIPOS>ATOM
      1 NZ          1.4750    2.3250   -0.0000 N.ar      1 4ME1        0.0000
      2 CE1         2.1050    1.1520    0.0000 C.ar      1 4ME1        0.0000
      3 CD1         1.4040   -0.0640    0.0000 C.ar      1 4ME1        0.0000
      4 CG          0.0000   -0.0250    0.0000 C.ar      1 4ME1        0.0000
      5 CD2        -0.6440    1.2220    0.0000 C.ar      1 4ME1        0.0000
      6 CE2         0.1450    2.3820    0.0000 C.ar      1 4ME1        0.0000
      7 HE1         3.1880    1.1610    0.0000 H         1 4ME1        0.0000
      8 HD1         1.9340   -1.0020    0.0000 H         1 4ME1        0.0000
      9 HD2        -1.7200    1.2880    0.0000 H         1 4ME1        0.0000
     10 HE2        -0.3180    3.3610   -0.0000 H         1 4ME1        0.0000
     11 C2         -0.8100   -1.2830    0.0000 C.3       1 4ME1        0.0000
     12 H21        -0.1410   -2.1710    0.0000 H         1 4ME1        0.0000
     13 H22        -1.4480   -1.3000   -0.9100 H         1 4ME1        0.0000
     14 H23        -1.4480   -1.3000    0.9100 H         1 4ME1        0.0000
@<TRIPOS>BOND
     1   13   11 1 
     2    1    2 ar
     3    1    6 ar
     4    2    3 ar
     5    2    7 1 
     6    3    4 ar
     7    3    8 1 
     8    4    5 ar
     9    4   11 1 
    10    5    6 ar
    11    5    9 1 
    12    6   10 1 
    13   11   12 1 
    14   11   14 1 
