@<TRIPOS>MOLECULE
C:\Users\Praveer\PycharmProjects\pdb_to_mol2_converter\data\pdb\4o2sm.pdb
   15    15     0     0     0
SMALL
GASTEIGER

@<TRIPOS>ATOM
      1 N1          1.7410    2.3610    0.0010 N.ar      1 4O21        0.0000
      2 C2          2.2480    1.0970    0.0010 C.ar      1 4O21        0.0000
      3 N3          1.3630    0.0290    0.0010 N.ar      1 4O21        0.0000
      4 C4         -0.0080    0.1250    0.0000 C.ar      1 4O21        0.0000
      5 C5         -0.5230    1.4540   -0.0000 C.ar      1 4O21        0.0000
      6 C6          0.3540    2.5110    0.0000 C.ar      1 4O21        0.0000
      7 H3          1.7320   -0.9020    0.0010 H         1 4O21        0.0000
      8 H5         -1.5960    1.6260   -0.0010 H         1 4O21        0.0000
      9 H6         -0.0470    3.5230   -0.0000 H         1 4O21        0.0000
     10 O4         -0.6750   -0.9040    0.0000 O.2       1 4O21        0.0000
     11 S2          3.9840    0.8180    0.0020 S.3       1 4O21        0.0000
     12 C7          4.5580    2.5560   -0.0010 C.3       1 4O21        0.0000
     13 H71         4.2020    3.1060    0.8980 H         1 4O21        0.0000
     14 H72         4.2020    3.1030   -0.9010 H         1 4O21        0.0000
     15 H73         5.6680    2.6030   -0.0010 H         1 4O21        0.0000
@<TRIPOS>BOND
     1   14   12 1 
     2    8    5 1 
     3   12   15 1 
     4   12   11 1 
     5   12   13 1 
     6    4    5 ar
     7    4   10 2 
     8    4    3 ar
     9    5    6 ar
    10    6    9 1 
    11    6    1 ar
    12    1    2 ar
    13    2    3 ar
    14    2   11 1 
    15    3    7 1 
