@<TRIPOS>MOLECULE
C:\Users\Praveer\PycharmProjects\pdb_to_mol2_converter\data\pdb\4pyo.pdb
   12    12     0     0     0
SMALL
GASTEIGER

@<TRIPOS>ATOM
      1 O1         -0.6070   -1.1100   -0.0000 O.2       1 4PY1        0.0000
      2 C1         -0.0090   -0.0380    0.0000 C.ar      1 4PY1        0.0000
      3 C21        -0.7160    1.1960    0.0000 C.ar      1 4PY1        0.0000
      4 C31        -0.0100    2.3700    0.0000 C.ar      1 4PY1        0.0000
      5 N1          1.3550    2.4060    0.0000 N.ar      1 4PY1        0.0000
      6 C32         2.0410    1.2250    0.0000 C.ar      1 4PY1        0.0000
      7 C22         1.4120    0.0080    0.0000 C.ar      1 4PY1        0.0000
      8 H21        -1.8020    1.1590    0.0000 H         1 4PY1        0.0000
      9 H22         1.9520   -0.9350    0.0000 H         1 4PY1        0.0000
     10 H32         3.1330    1.2840   -0.0000 H         1 4PY1        0.0000
     11 H31        -0.5340    3.3300    0.0000 H         1 4PY1        0.0000
     12 H1          1.8470    3.2880   -0.0000 H         1 4PY1        0.0000
@<TRIPOS>BOND
     1    1    2 2 
     2    2    3 ar
     3    2    7 ar
     4    3    4 ar
     5    3    8 1 
     6    4    5 ar
     7    4   11 1 
     8    5    6 ar
     9    5   12 1 
    10    6    7 ar
    11    6   10 1 
    12    7    9 1 
