@<TRIPOS>MOLECULE
C:\Users\Praveer\PycharmProjects\pdb_to_mol2_converter\data\pdb\5fop.pdb
   13    13     0     0     0
SMALL
GASTEIGER

@<TRIPOS>ATOM
      1 N1          1.3500   -0.0100    0.0000 N.ar      1 5FO1        0.0000
      2 C2          2.0660    1.1760    0.0000 C.ar      1 5FO1        0.0000
      3 O2          3.2870    1.0860    0.0000 O.2       1 5FO1        0.0000
      4 N3          1.4040    2.3630    0.0000 N.ar      1 5FO1        0.0000
      5 C4          0.0150    2.3430   -0.0000 C.ar      1 5FO1        0.0000
      6 H4         -0.5090    3.2970   -0.0000 H         1 5FO1        0.0000
      7 C5         -0.7010    1.1750   -0.0000 C.ar      1 5FO1        0.0000
      8 C6         -0.0100   -0.0030   -0.0000 C.ar      1 5FO1        0.0000
      9 H6         -0.5270   -0.9650   -0.0000 H         1 5FO1        0.0000
     10 C7         -2.1590    1.1760   -0.0000 C.2       1 5FO1        0.0000
     11 H7         -2.6580    2.1690   -0.0000 H         1 5FO1        0.0000
     12 O7         -2.8540    0.1820   -0.0010 O.2       1 5FO1        0.0000
     13 H1          1.9370   -0.8270    0.0000 H         1 5FO1        0.0000
@<TRIPOS>BOND
     1   12   10 2 
     2    1    2 ar
     3    1    8 ar
     4    1   13 1 
     5    2    3 2 
     6    2    4 ar
     7    4    5 ar
     8    5    6 1 
     9    5    7 ar
    10    7    8 ar
    11    7   10 1 
    12    8    9 1 
    13   10   11 1 
