@<TRIPOS>MOLECULE
C:\Users\Praveer\PycharmProjects\pdb_to_mol2_converter\data\pdb\7dng.pdb
   17    18     0     0     0
SMALL
GASTEIGER

@<TRIPOS>ATOM
      1 N9          1.3770   -0.0180    0.0660 N.ar      1 7DN1        0.0000
      2 H9          1.8540   -0.9010    0.0970 H         1 7DN1        0.0000
      3 C8          1.9080    1.2490    0.2310 C.ar      1 7DN1        0.0000
      4 H8          2.9540    1.4330    0.4460 H         1 7DN1        0.0000
      5 C7          0.8880    2.1420    0.0670 C.ar      1 7DN1        0.0000
      6 H7          0.9600    3.2180    0.1160 H         1 7DN1        0.0000
      7 C5         -0.3040    1.3810   -0.1960 C.ar      1 7DN1        0.0000
      8 C6         -1.6450    1.7350   -0.4280 C.ar      1 7DN1        0.0000
      9 O6         -2.1590    2.8520   -0.4890 O.2       1 7DN1        0.0000
     10 N1         -2.4480    0.6340   -0.6720 N.ar      1 7DN1        0.0000
     11 H1         -3.4210    0.8300   -0.7890 H         1 7DN1        0.0000
     12 C2         -2.0380   -0.6830   -0.6300 C.ar      1 7DN1        0.0000
     13 N2         -2.9370   -1.5990   -0.9740 N.pl3     1 7DN1        0.0000
     14 H21        -3.7880   -1.3470   -1.4200 H         1 7DN1        0.0000
     15 H22        -2.5920   -2.5270   -1.0770 H         1 7DN1        0.0000
     16 N3         -0.7550   -1.0110   -0.4120 N.ar      1 7DN1        0.0000
     17 C4          0.0510    0.0260   -0.1850 C.ar      1 7DN1        0.0000
@<TRIPOS>BOND
     1   14   13 1 
     2   15   13 1 
     3   13   12 1 
     4   11   10 1 
     5   10   12 ar
     6   10    8 ar
     7   12   16 ar
     8    9    8 2 
     9    8    7 ar
    10   16   17 ar
    11    7   17 ar
    12    7    5 ar
    13   17    1 ar
    14    1    2 1 
    15    1    3 ar
    16    5    6 1 
    17    5    3 ar
    18    3    4 1 
