@<TRIPOS>MOLECULE
C:\Users\Praveer\PycharmProjects\pdb_to_mol2_converter\data\pdb\7mip.pdb
   20    21     0     0     0
SMALL
GASTEIGER

@<TRIPOS>ATOM
      1 C5          1.4400   -0.0010    0.0010 C.ar      1 7MI1        0.0000
      2 C6          2.4240    0.9870    0.0010 C.3       1 7MI1        0.0000
      3 H6          2.1780    2.0420   -0.0120 H         1 7MI1        0.0000
      4 N1          3.7200    0.6750    0.0090 N.2       1 7MI1        0.0000
      5 C2          4.0380   -0.6610    0.0400 C.2       1 7MI1        0.0000
      6 H2          5.1010   -0.9140    0.0470 H         1 7MI1        0.0000
      7 N3          3.1560   -1.7010    0.0610 N.pl3     1 7MI1        0.0000
      8 C4          1.8960   -1.3100    0.0490 C.ar      1 7MI1        0.0000
      9 N9          0.7940   -2.0860    0.0810 N.ar      1 7MI1        0.0000
     10 H9          0.9170   -3.0890    0.1120 H         1 7MI1        0.0000
     11 C8         -0.3720   -1.3290    0.0570 C.ar      1 7MI1        0.0000
     12 H8         -1.3600   -1.7820    0.0520 H         1 7MI1        0.0000
     13 C7         -0.0060    0.0030    0.0010 C.ar      1 7MI1        0.0000
     14 C10        -0.8920    1.1520   -0.0740 C.2       1 7MI1        0.0000
     15 N11        -2.0260    1.1610    0.6150 N.pl3     1 7MI1        0.0000
     16 H111       -2.2490    0.3910    1.2110 H         1 7MI1        0.0000
     17 H112       -2.6350    1.9520    0.5770 H         1 7MI1        0.0000
     18 N12        -0.5450    2.1790   -0.8350 N.2       1 7MI1        0.0000
     19 H121        0.3020    2.1340   -1.3640 H         1 7MI1        0.0000
     20 H122       -1.1350    2.9810   -0.9080 H         1 7MI1        0.0000
@<TRIPOS>BOND
     1   19   18 1 
     2   20   18 1 
     3   18   14 2 
     4   14   13 1 
     5   14   15 1 
     6    3    2 1 
     7    1    2 1 
     8    1   13 ar
     9    1    8 ar
    10    2    4 1 
    11   13   11 ar
    12    4    5 2 
    13    5    6 1 
    14    5    7 1 
    15    8    7 1 
    16    8    9 ar
    17   12   11 1 
    18   11    9 ar
    19    9   10 1 
    20   17   15 1 
    21   15   16 1 
