@<TRIPOS>MOLECULE
C:\Users\Praveer\PycharmProjects\pdb_to_mol2_converter\data\pdb\a2fo.pdb
   10    10     0     0     0
SMALL
GASTEIGER

@<TRIPOS>ATOM
      1 O1         -0.0010    0.0280    0.0000 O.3       1 A2F1        0.0000
      2 C2          1.3730    0.0320   -0.0000 C.2       1 A2F1        0.0000
      3 C3          1.8280    1.4870   -0.0000 C.3       1 A2F1        0.0000
      4 H31         2.4510    1.6890   -0.8830 H         1 A2F1        0.0000
      5 H32         2.4510    1.6890    0.8830 H         1 A2F1        0.0000
      6 C4          0.5370    2.2530    0.0000 C.2       1 A2F1        0.0000
      7 H4          0.4360    3.3290   -0.0000 H         1 A2F1        0.0000
      8 C5         -0.4580    1.3310    0.0000 C.2       1 A2F1        0.0000
      9 H5         -1.5370    1.4560    0.0000 H         1 A2F1        0.0000
     10 O6          2.1190   -0.9510   -0.0000 O.2       1 A2F1        0.0000
@<TRIPOS>BOND
     1    4    3 1 
     2    1    2 1 
     3    1    8 1 
     4    2    3 1 
     5    2   10 2 
     6    3    6 1 
     7    3    5 1 
     8    6    7 1 
     9    6    8 2 
    10    8    9 1 
