@<TRIPOS>MOLECULE
C:\Users\Praveer\PycharmProjects\pdb_to_mol2_converter\data\pdb\a3ph.pdb
   19    19     0     0     0
SMALL
GASTEIGER

@<TRIPOS>ATOM
      1 O4'         1.4550    0.0260   -0.2590 O.3       1 A3P1        0.0000
      2 C1'         1.7330    1.4270   -0.3490 C.3       1 A3P1        0.0000
      3 H11'        1.3310    1.8040   -1.3010 H         1 A3P1        0.0000
      4 H12'        2.8210    1.5780   -0.3350 H         1 A3P1        0.0000
      5 C4'         0.1000   -0.1090    0.1940 C.3       1 A3P1        0.0000
      6 H41'        0.0050   -1.0550    0.7450 H         1 A3P1        0.0000
      7 H42'       -0.5480   -0.1710   -0.6900 H         1 A3P1        0.0000
      8 C2'         1.0330    2.0070    0.8670 C.3       1 A3P1        0.0000
      9 H22'        1.6990    1.9010    1.7430 H         1 A3P1        0.0000
     10 O2'         0.6870    3.3790    0.7100 O.3       1 A3P1        0.0000
     11 H21'        0.3050    3.6070    1.5840 H         1 A3P1        0.0000
     12 C3'        -0.2160    1.1160    1.0630 C.3       1 A3P1        0.0000
     13 H31'       -1.1360    1.5950    0.6790 H         1 A3P1        0.0000
     14 O3'        -0.3420    0.7210    2.4330 O.3       1 A3P1        0.0000
     15 P          -0.9160    1.8040    3.4830 P.3       1 A3P1        0.0000
     16 O1P        -0.2560    3.1300    3.2030 O.2       1 A3P1        0.0000
     17 O2P        -2.4090    1.6720    3.4370 O.3       1 A3P1        0.0000
     18 O3T        -0.4140    1.1930    4.8650 O.3       1 A3P1        0.0000
     19 H3T        -0.8150    0.3280    4.9780 H         1 A3P1        0.0000
@<TRIPOS>BOND
     1    3    2 1 
     2    7    5 1 
     3    2    4 1 
     4    2    1 1 
     5    2    8 1 
     6    1    5 1 
     7    5    6 1 
     8    5   12 1 
     9   13   12 1 
    10   10    8 1 
    11   10   11 1 
    12    8   12 1 
    13    8    9 1 
    14   12   14 1 
    15   14   15 1 
    16   16   15 2 
    17   17   15 1 
    18   15   18 1 
    19   18   19 1 
