@<TRIPOS>MOLECULE
C:\Users\Praveer\PycharmProjects\pdb_to_mol2_converter\data\pdb\a6hep.pdb
   27    27     0     0     0
SMALL
GASTEIGER

@<TRIPOS>ATOM
      1 C1          1.3840    0.0240   -0.0320 C.3       1 A6H1        0.0000
      2 H1          1.7030   -0.4610   -0.9840 H         1 A6H1        0.0000
      3 O1          1.9070   -0.7300    1.0260 O.3       1 A6H1        0.0000
      4 HO1         1.6230   -1.6400    0.9000 H         1 A6H1        0.0000
      5 C5         -0.5800    0.7300    1.1380 C.3       1 A6H1        0.0000
      6 H5         -0.2660    0.2000    2.0680 H         1 A6H1        0.0000
      7 O5         -0.0460    0.0600   -0.0180 O.3       1 A6H1        0.0000
      8 C2          1.9730    1.4300    0.0090 C.3       1 A6H1        0.0000
      9 H2          3.0800    1.3410    0.1350 H         1 A6H1        0.0000
     10 O2          1.7430    2.1490   -1.2120 O.3       1 A6H1        0.0000
     11 HO2         2.5380    2.1580   -1.7560 H         1 A6H1        0.0000
     12 C3          1.4350    2.1900    1.2050 C.3       1 A6H1        0.0000
     13 H3          1.7820    1.6730    2.1330 H         1 A6H1        0.0000
     14 O3          1.9410    3.5250    1.2560 O.3       1 A6H1        0.0000
     15 HO3         1.8470    3.8970    0.3700 H         1 A6H1        0.0000
     16 C4         -0.0800    2.1680    1.2000 C.3       1 A6H1        0.0000
     17 H4         -0.4490    2.7020    0.2930 H         1 A6H1        0.0000
     18 O4         -0.5990    2.8310    2.3480 O.3       1 A6H1        0.0000
     19 HO4        -0.0180    3.5820    2.5250 H         1 A6H1        0.0000
     20 C6         -2.1240    0.6220    1.0300 C.3       1 A6H1        0.0000
     21 H61        -2.4530    1.0880    0.0760 H         1 A6H1        0.0000
     22 H62        -2.5770    1.2080    1.8600 H         1 A6H1        0.0000
     23 C7         -2.6700   -0.8090    1.1180 C.3       1 A6H1        0.0000
     24 H71        -3.7830   -0.8080    1.0780 H         1 A6H1        0.0000
     25 H72        -2.3510   -1.2880    2.0710 H         1 A6H1        0.0000
     26 O7         -2.1680   -1.5570    0.0250 O.3       1 A6H1        0.0000
     27 HO7        -1.3640   -1.0740   -0.2290 H         1 A6H1        0.0000
@<TRIPOS>BOND
     1   11   10 1 
     2   10    8 1 
     3    2    1 1 
     4   27   26 1 
     5    1    7 1 
     6    1    8 1 
     7    1    3 1 
     8    7    5 1 
     9    8    9 1 
    10    8   12 1 
    11   26   23 1 
    12   21   20 1 
    13   17   16 1 
    14   15   14 1 
    15    4    3 1 
    16   20   23 1 
    17   20    5 1 
    18   20   22 1 
    19   24   23 1 
    20   23   25 1 
    21    5   16 1 
    22    5    6 1 
    23   16   12 1 
    24   16   18 1 
    25   12   14 1 
    26   12   13 1 
    27   18   19 1 
