@<TRIPOS>MOLECULE
C:\Users\Praveer\PycharmProjects\pdb_to_mol2_converter\data\pdb\a8leg.pdb
   44    44     0     0     0
SMALL
GASTEIGER

@<TRIPOS>ATOM
      1 C1          2.3890    1.3090   -0.0260 C.2       1 A8L1        0.0000
      2 O11         3.5370    1.2360    0.5040 O.co2     1 A8L1        0.0000
      3 O12         1.7810    2.3370   -0.4210 O.co2     1 A8L1        0.0000
      4 C2          1.5660   -0.0270   -0.0520 C.3       1 A8L1        0.0000
      5 O2          2.0290   -0.8900    0.9470 O.3       1 A8L1        0.0000
      6 HO2         2.8780   -0.4630    1.1320 H         1 A8L1        0.0000
      7 C6          1.4420   -0.1540   -2.4740 C.3       1 A8L1        0.0000
      8 H6          1.7960    0.8960   -2.5640 H         1 A8L1        0.0000
      9 O6          1.9290   -0.7310   -1.2440 O.3       1 A8L1        0.0000
     10 C3          0.0500    0.0910    0.0250 C.3       1 A8L1        0.0000
     11 H31        -0.2120    0.7440    0.8880 H         1 A8L1        0.0000
     12 H32        -0.3550   -0.9270    0.2390 H         1 A8L1        0.0000
     13 C4         -0.5760    0.5910   -1.2310 C.3       1 A8L1        0.0000
     14 H4         -0.3180    1.6670   -1.3890 H         1 A8L1        0.0000
     15 O4         -1.9840    0.4950   -1.0880 O.3       1 A8L1        0.0000
     16 HO4        -2.2560    1.1940   -0.4890 H         1 A8L1        0.0000
     17 C5         -0.0990   -0.1870   -2.4400 C.3       1 A8L1        0.0000
     18 H5         -0.3750   -1.2570   -2.2750 H         1 A8L1        0.0000
     19 N51        -0.8460    0.2280   -3.6180 N.am      1 A8L1        0.0000
     20 HN51       -1.6570   -0.3120   -3.8000 H         1 A8L1        0.0000
     21 C51        -0.6790    1.3820   -4.2740 C.2       1 A8L1        0.0000
     22 O51         0.2890    2.1110   -4.1200 O.2       1 A8L1        0.0000
     23 CT51       -1.7590    1.7460   -5.2590 C.3       1 A8L1        0.0000
     24 HT51       -2.7550    1.5750   -4.8010 H         1 A8L1        0.0000
     25 HT52       -1.6540    1.1360   -6.1790 H         1 A8L1        0.0000
     26 HT53       -1.6630    2.8200   -5.5220 H         1 A8L1        0.0000
     27 C7          2.1760   -1.0000   -3.5320 C.3       1 A8L1        0.0000
     28 H7          1.8090   -2.0470   -3.3880 H         1 A8L1        0.0000
     29 N71         3.5950   -0.9690   -3.2210 N.am      1 A8L1        0.0000
     30 HN71        3.9300   -0.0790   -2.9330 H         1 A8L1        0.0000
     31 C71         4.4120   -2.0260   -3.1530 C.2       1 A8L1        0.0000
     32 O71         4.0760   -3.1640   -3.4620 O.2       1 A8L1        0.0000
     33 CT71        5.8110   -1.7350   -2.6780 C.3       1 A8L1        0.0000
     34 HT71        5.7680   -1.1270   -1.7490 H         1 A8L1        0.0000
     35 HT72        6.3630   -1.1800   -3.4620 H         1 A8L1        0.0000
     36 HT73        6.3310   -2.6920   -2.4650 H         1 A8L1        0.0000
     37 C8          1.9060   -0.6400   -5.0000 C.3       1 A8L1        0.0000
     38 H8          0.8270   -0.7530   -5.2310 H         1 A8L1        0.0000
     39 O8          2.3280    0.6840   -5.3100 O.3       1 A8L1        0.0000
     40 HO8         1.7400    1.2870   -4.8210 H         1 A8L1        0.0000
     41 C9          2.6520   -1.5950   -5.9500 C.3       1 A8L1        0.0000
     42 H91         2.4150   -2.6510   -5.7050 H         1 A8L1        0.0000
     43 H92         3.7500   -1.4550   -5.8640 H         1 A8L1        0.0000
     44 H93         2.3590   -1.3940   -7.0010 H         1 A8L1        0.0000
@<TRIPOS>BOND
     1   44   41 1 
     2   25   23 1 
     3   41   43 1 
     4   41   42 1 
     5   41   37 1 
     6   26   23 1 
     7   39   37 1 
     8   39   40 1 
     9   23   24 1 
    10   23   21 1 
    11   38   37 1 
    12   37   27 1 
    13   21   22 2 
    14   21   19 am
    15   20   19 1 
    16   19   17 1 
    17   27   28 1 
    18   27   29 1 
    19   27    7 1 
    20   35   33 1 
    21   32   31 2 
    22   29   31 am
    23   29   30 1 
    24   31   33 1 
    25   33   36 1 
    26   33   34 1 
    27    8    7 1 
    28    7   17 1 
    29    7    9 1 
    30   17   18 1 
    31   17   13 1 
    32   14   13 1 
    33    9    4 1 
    34   13   15 1 
    35   13   10 1 
    36   15   16 1 
    37    3    1 ar
    38    4    1 1 
    39    4   10 1 
    40    4    5 1 
    41    1    2 ar
    42   10   12 1 
    43   10   11 1 
    44    5    6 1 
