@<TRIPOS>MOLECULE
C:\Users\Praveer\PycharmProjects\pdb_to_mol2_converter\data\pdb\aald.pdb
    7     6     0     0     0
SMALL
GASTEIGER

@<TRIPOS>ATOM
      1 HA          1.7590   -0.9450    0.0000 H         1 AAL1        0.0000
      2 C           1.2180    0.0250   -0.0000 C.2       1 AAL1        0.0000
      3 O           0.0060    0.0100    0.0010 O.2       1 AAL1        0.0000
      4 CB          2.0600    1.2650   -0.0030 C.3       1 AAL1        0.0000
      5 HB1         2.7020    1.2920   -0.9090 H         1 AAL1        0.0000
      6 HB2         2.7030    1.2950    0.9010 H         1 AAL1        0.0000
      7 HB3         1.4010    2.1600   -0.0040 H         1 AAL1        0.0000
@<TRIPOS>BOND
     1    5    4 1 
     2    7    4 1 
     3    4    2 1 
     4    4    6 1 
     5    1    2 1 
     6    2    3 2 
