@<TRIPOS>MOLECULE
C:\Users\Praveer\PycharmProjects\pdb_to_mol2_converter\data\pdb\aall.pdb
   24    24     0     0     0
SMALL
GASTEIGER

@<TRIPOS>ATOM
      1 C1          1.4280    0.0350   -0.0080 C.3       1 AAL1        0.0000
      2 H1          1.7460   -0.4780   -0.9480 H         1 AAL1        0.0000
      3 O1          1.9520   -0.6850    1.0810 O.3       1 AAL1        0.0000
      4 HO1         1.7440   -1.6120    0.9310 H         1 AAL1        0.0000
      5 C5         -0.5380    0.7740    1.1530 C.3       1 AAL1        0.0000
      6 H5         -0.2270    0.2430    2.0840 H         1 AAL1        0.0000
      7 O5         -0.0010    0.0840    0.0060 O.3       1 AAL1        0.0000
      8 C2          1.9630    1.4650   -0.0510 C.3       1 AAL1        0.0000
      9 H2          1.5310    1.9370   -0.9670 H         1 AAL1        0.0000
     10 O2          3.3820    1.5340   -0.1980 O.3       1 AAL1        0.0000
     11 HO2         3.7860    1.3350    0.6560 H         1 AAL1        0.0000
     12 C3          1.4790    2.2590    1.1440 C.3       1 AAL1        0.0000
     13 H3          1.7900    3.3250    1.0090 H         1 AAL1        0.0000
     14 O3          2.0730    1.8050    2.3630 O.3       1 AAL1        0.0000
     15 HO3         2.1080    0.8340    2.3210 H         1 AAL1        0.0000
     16 C4         -0.0350    2.2190    1.2020 C.3       1 AAL1        0.0000
     17 H4         -0.4340    2.7420    0.3000 H         1 AAL1        0.0000
     18 O4         -0.5220    2.9090    2.3470 O.3       1 AAL1        0.0000
     19 HO4         0.1470    2.8010    3.0400 H         1 AAL1        0.0000
     20 C6         -2.0420    0.6590    1.0290 C.3       1 AAL1        0.0000
     21 H61        -2.3270   -0.4050    0.8650 H         1 AAL1        0.0000
     22 H62        -2.4030    1.2460    0.1550 H         1 AAL1        0.0000
     23 O6         -2.6970    1.1160    2.2110 O.3       1 AAL1        0.0000
     24 HO6        -2.3190    1.9790    2.4470 H         1 AAL1        0.0000
@<TRIPOS>BOND
     1    9    8 1 
     2    2    1 1 
     3   10    8 1 
     4   10   11 1 
     5    8    1 1 
     6    8   12 1 
     7    1    7 1 
     8    1    3 1 
     9    7    5 1 
    10   22   20 1 
    11   17   16 1 
    12   21   20 1 
    13    4    3 1 
    14   13   12 1 
    15   20    5 1 
    16   20   23 1 
    17   12   16 1 
    18   12   14 1 
    19    5   16 1 
    20    5    6 1 
    21   16   18 1 
    22   23   24 1 
    23   15   14 1 
    24   18   19 1 
