@<TRIPOS>MOLECULE
C:\Users\Praveer\PycharmProjects\pdb_to_mol2_converter\data\pdb\aalla.pdb
   22    22     0     0     0
SMALL
GASTEIGER

@<TRIPOS>ATOM
      1 C1          1.4760    0.0450   -0.0290 C.3       1 AAL1        0.0000
      2 H1          1.8210   -0.4540   -0.9640 H         1 AAL1        0.0000
      3 O1          1.9680   -0.6840    1.0650 O.3       1 AAL1        0.0000
      4 HO1         1.6200   -1.5710    0.9660 H         1 AAL1        0.0000
      5 C5         -0.5250    0.7120    1.1100 C.3       1 AAL1        0.0000
      6 H5         -0.2530    0.1430    2.0250 H         1 AAL1        0.0000
      7 O5          0.0470    0.0620   -0.0500 O.3       1 AAL1        0.0000
      8 C2          1.9620    1.4920   -0.0460 C.3       1 AAL1        0.0000
      9 H2          1.5120    1.9750   -0.9430 H         1 AAL1        0.0000
     10 O2          3.3880    1.5970   -0.1960 O.3       1 AAL1        0.0000
     11 HO2         3.7660    1.4400    0.6700 H         1 AAL1        0.0000
     12 C3          1.4760    2.2460    1.1760 C.3       1 AAL1        0.0000
     13 H3          1.7340    3.3250    1.0530 H         1 AAL1        0.0000
     14 O3          2.1500    1.8060    2.3560 O.3       1 AAL1        0.0000
     15 HO3         2.0090    0.8510    2.4160 H         1 AAL1        0.0000
     16 C4         -0.0510    2.1610    1.2520 C.3       1 AAL1        0.0000
     17 H4         -0.4540    2.7320    0.3790 H         1 AAL1        0.0000
     18 O4         -0.5770    2.7540    2.4330 O.3       1 AAL1        0.0000
     19 HO4        -1.4090    2.2550    2.6110 H         1 AAL1        0.0000
     20 C6         -2.0630    0.7360    1.0690 C.2       1 AAL1        0.0000
     21 O61        -2.5800    1.0050    2.1870 O.co2     1 AAL1        0.0000
     22 O62        -2.6260    0.5490   -0.0480 O.co2     1 AAL1        0.0000
@<TRIPOS>BOND
     1    2    1 1 
     2    9    8 1 
     3   10    8 1 
     4   10   11 1 
     5    7    1 1 
     6    7    5 1 
     7   22   20 ar
     8    8    1 1 
     9    8   12 1 
    10    1    3 1 
    11   17   16 1 
    12    4    3 1 
    13   13   12 1 
    14   20    5 1 
    15   20   21 ar
    16    5   16 1 
    17    5    6 1 
    18   12   16 1 
    19   12   14 1 
    20   16   18 1 
    21   14   15 1 
    22   18   19 1 
