@<TRIPOS>MOLECULE
C:\Users\Praveer\PycharmProjects\pdb_to_mol2_converter\data\pdb\aalln.pdb
   25    25     0     0     0
SMALL
GASTEIGER

@<TRIPOS>ATOM
      1 C1          1.4230    0.0110   -0.0060 C.3       1 AAL1        0.0000
      2 H1          1.7500   -0.4850   -0.9490 H         1 AAL1        0.0000
      3 O1          1.9330   -0.7280    1.0740 O.3       1 AAL1        0.0000
      4 HO1         1.6990   -1.6490    0.9240 H         1 AAL1        0.0000
      5 C5         -0.5490    0.7440    1.1460 C.3       1 AAL1        0.0000
      6 H5         -0.2320    0.2100    2.0730 H         1 AAL1        0.0000
      7 O5         -0.0070    0.0670   -0.0050 O.3       1 AAL1        0.0000
      8 C2          1.9870    1.4350   -0.0160 C.3       1 AAL1        0.0000
      9 H2          1.5660    1.9190   -0.9320 H         1 AAL1        0.0000
     10 N2          3.4310    1.5470   -0.1720 N.3       1 AAL1        0.0000
     11 HN21        3.8980    0.8930   -0.7650 H         1 AAL1        0.0000
     12 HN22        3.9190    1.8450    0.6520 H         1 AAL1        0.0000
     13 C3          1.4680    2.2240    1.1650 C.3       1 AAL1        0.0000
     14 H3          1.7910    3.2860    1.0390 H         1 AAL1        0.0000
     15 O3          2.0410    1.7550    2.3850 O.3       1 AAL1        0.0000
     16 HO3         2.2080    0.8040    2.2610 H         1 AAL1        0.0000
     17 C4         -0.0450    2.1880    1.1970 C.3       1 AAL1        0.0000
     18 H4         -0.4310    2.7090    0.2880 H         1 AAL1        0.0000
     19 O4         -0.5430    2.8820    2.3350 O.3       1 AAL1        0.0000
     20 HO4         0.1180    2.7590    3.0340 H         1 AAL1        0.0000
     21 C6         -2.0540    0.6270    1.0310 C.3       1 AAL1        0.0000
     22 H61        -2.3390   -0.4380    0.8710 H         1 AAL1        0.0000
     23 H62        -2.4210    1.2120    0.1570 H         1 AAL1        0.0000
     24 O6         -2.7040    1.0870    2.2140 O.3       1 AAL1        0.0000
     25 HO6        -2.3170    1.9470    2.4500 H         1 AAL1        0.0000
@<TRIPOS>BOND
     1    2    1 1 
     2    9    8 1 
     3   11   10 1 
     4   10    8 1 
     5   10   12 1 
     6    8    1 1 
     7    8   13 1 
     8    1    7 1 
     9    1    3 1 
    10    7    5 1 
    11   23   21 1 
    12   18   17 1 
    13   22   21 1 
    14    4    3 1 
    15   21    5 1 
    16   21   24 1 
    17   14   13 1 
    18    5   17 1 
    19    5    6 1 
    20   13   17 1 
    21   13   15 1 
    22   17   19 1 
    23   24   25 1 
    24   16   15 1 
    25   19   20 1 
