@<TRIPOS>MOLECULE
C:\Users\Praveer\PycharmProjects\pdb_to_mol2_converter\data\pdb\aallna.pdb
   30    30     0     0     0
SMALL
GASTEIGER

@<TRIPOS>ATOM
      1 C1          1.4040   -0.0180    0.0020 C.3       1 AAL1        0.0000
      2 H1          1.7120   -0.5180   -0.9480 H         1 AAL1        0.0000
      3 O1          1.9340   -0.7560    1.0700 O.3       1 AAL1        0.0000
      4 HO1         1.6460   -1.6670    0.9500 H         1 AAL1        0.0000
      5 C5         -0.5550    0.7480    1.1590 C.3       1 AAL1        0.0000
      6 H5         -0.2500    0.2160    2.0910 H         1 AAL1        0.0000
      7 O5         -0.0220    0.0510    0.0160 O.3       1 AAL1        0.0000
      8 C2          1.9830    1.3870   -0.0020 C.3       1 AAL1        0.0000
      9 H2          1.5600    1.8660   -0.9250 H         1 AAL1        0.0000
     10 N           3.4330    1.4150   -0.1210 N.am      1 AAL1        0.0000
     11 HN          3.9280    0.6730    0.3170 H         1 AAL1        0.0000
     12 C           4.0980    2.4250   -0.6940 C.2       1 AAL1        0.0000
     13 O           3.5230    3.3790   -1.2000 O.2       1 AAL1        0.0000
     14 CT          5.6000    2.3320   -0.6890 C.3       1 AAL1        0.0000
     15 HT1         5.9270    1.4490   -1.2750 H         1 AAL1        0.0000
     16 HT2         5.9710    2.2500    0.3530 H         1 AAL1        0.0000
     17 HT3         6.0200    3.2510   -1.1520 H         1 AAL1        0.0000
     18 C3          1.4780    2.1940    1.1720 C.3       1 AAL1        0.0000
     19 H3          1.8180    3.2520    1.0470 H         1 AAL1        0.0000
     20 O3          2.0360    1.7150    2.3920 O.3       1 AAL1        0.0000
     21 HO3         2.1200    0.7510    2.3060 H         1 AAL1        0.0000
     22 C4         -0.0350    2.1850    1.2020 C.3       1 AAL1        0.0000
     23 H4         -0.4090    2.7090    0.2900 H         1 AAL1        0.0000
     24 O4         -0.5260    2.8910    2.3370 O.3       1 AAL1        0.0000
     25 HO4         0.1410    2.7860    3.0320 H         1 AAL1        0.0000
     26 C6         -2.0600    0.6520    1.0330 C.3       1 AAL1        0.0000
     27 H61        -2.3570   -0.4080    0.8640 H         1 AAL1        0.0000
     28 H62        -2.4120    1.2460    0.1600 H         1 AAL1        0.0000
     29 O6         -2.7100    1.1130    2.2150 O.3       1 AAL1        0.0000
     30 HO6        -2.3240    1.9730    2.4490 H         1 AAL1        0.0000
@<TRIPOS>BOND
     1   15   14 1 
     2   13   12 2 
     3   17   14 1 
     4    2    1 1 
     5    9    8 1 
     6   12   14 1 
     7   12   10 am
     8   14   16 1 
     9   10    8 1 
    10   10   11 1 
    11    8    1 1 
    12    8   18 1 
    13    1    7 1 
    14    1    3 1 
    15    7    5 1 
    16   28   26 1 
    17   23   22 1 
    18   27   26 1 
    19    4    3 1 
    20   26    5 1 
    21   26   29 1 
    22   19   18 1 
    23    5   22 1 
    24    5    6 1 
    25   18   22 1 
    26   18   20 1 
    27   22   24 1 
    28   29   30 1 
    29   21   20 1 
    30   24   25 1 
