@<TRIPOS>MOLECULE
C:\Users\Praveer\PycharmProjects\pdb_to_mol2_converter\data\pdb\aaltn.pdb
   25    25     0     0     0
SMALL
GASTEIGER

@<TRIPOS>ATOM
      1 C1          1.4960   -0.0320    0.0910 C.3       1 AAL1        0.0000
      2 H1          1.8480   -0.6510   -0.7650 H         1 AAL1        0.0000
      3 O1          1.9510   -0.6490    1.2630 O.3       1 AAL1        0.0000
      4 HO1         1.9060    0.0310    1.9510 H         1 AAL1        0.0000
      5 C5         -0.5180    0.9110    0.9980 C.3       1 AAL1        0.0000
      6 H5         -0.2810    0.5070    2.0120 H         1 AAL1        0.0000
      7 O5          0.0700    0.0680   -0.0120 O.3       1 AAL1        0.0000
      8 C2          2.1200    1.3560   -0.0450 C.3       1 AAL1        0.0000
      9 H2          3.2190    1.2550    0.1390 H         1 AAL1        0.0000
     10 N2          2.0110    1.9280   -1.3830 N.3       1 AAL1        0.0000
     11 HN21        1.3250    1.5270   -1.9910 H         1 AAL1        0.0000
     12 HN22        2.8410    2.3060   -1.7950 H         1 AAL1        0.0000
     13 C3          1.5520    2.2900    1.0000 C.3       1 AAL1        0.0000
     14 H3          1.9500    3.3130    0.7930 H         1 AAL1        0.0000
     15 O3          1.9640    1.9280    2.3180 O.3       1 AAL1        0.0000
     16 HO3         1.4760    2.5000    2.9290 H         1 AAL1        0.0000
     17 C4          0.0420    2.3250    0.8810 C.3       1 AAL1        0.0000
     18 H4         -0.2250    2.7180   -0.1290 H         1 AAL1        0.0000
     19 O4         -0.5380    3.1850    1.8620 O.3       1 AAL1        0.0000
     20 HO4        -1.0990    3.8450    1.4420 H         1 AAL1        0.0000
     21 C6         -2.0200    0.8450    0.8160 C.3       1 AAL1        0.0000
     22 H61        -2.2950    1.2000   -0.2030 H         1 AAL1        0.0000
     23 H62        -2.5300    1.4960    1.5600 H         1 AAL1        0.0000
     24 O6         -2.5020   -0.4870    0.9900 O.3       1 AAL1        0.0000
     25 HO6        -1.9580   -1.0760    0.4540 H         1 AAL1        0.0000
@<TRIPOS>BOND
     1   11   10 1 
     2   12   10 1 
     3   10    8 1 
     4    2    1 1 
     5   22   21 1 
     6   18   17 1 
     7    8    1 1 
     8    8    9 1 
     9    8   13 1 
    10    7    1 1 
    11    7    5 1 
    12    1    3 1 
    13   25   24 1 
    14   14   13 1 
    15   21   24 1 
    16   21    5 1 
    17   21   23 1 
    18   17    5 1 
    19   17   13 1 
    20   17   19 1 
    21    5    6 1 
    22   13   15 1 
    23    3    4 1 
    24   20   19 1 
    25   15   16 1 
