@<TRIPOS>MOLECULE
C:\Users\Praveer\PycharmProjects\pdb_to_mol2_converter\data\pdb\aalta.pdb
   22    22     0     0     0
SMALL
GASTEIGER

@<TRIPOS>ATOM
      1 C1          1.5310   -0.0540    0.0820 C.3       1 AAL1        0.0000
      2 H1          1.8960   -0.6950   -0.7520 H         1 AAL1        0.0000
      3 O1          2.0590   -0.5950    1.2630 O.3       1 AAL1        0.0000
      4 HO1         1.9850    0.1130    1.9160 H         1 AAL1        0.0000
      5 C5         -0.5270    0.8470    0.9580 C.3       1 AAL1        0.0000
      6 H5         -0.4170    0.3730    1.9570 H         1 AAL1        0.0000
      7 O5          0.1090   -0.0080   -0.0300 O.3       1 AAL1        0.0000
      8 C2          2.0470    1.3580   -0.1220 C.3       1 AAL1        0.0000
      9 H2          3.1620    1.3380   -0.0890 H         1 AAL1        0.0000
     10 O2          1.6720    1.8570   -1.4080 O.3       1 AAL1        0.0000
     11 HO2         0.7460    1.6050   -1.5630 H         1 AAL1        0.0000
     12 C3          1.5420    2.2920    0.9600 C.3       1 AAL1        0.0000
     13 H3          1.8770    3.3310    0.7110 H         1 AAL1        0.0000
     14 O3          2.0790    1.9760    2.2420 O.3       1 AAL1        0.0000
     15 HO3         1.5130    2.4540    2.8700 H         1 AAL1        0.0000
     16 C4          0.0260    2.2770    0.9910 C.3       1 AAL1        0.0000
     17 H4         -0.3220    2.8050    0.0710 H         1 AAL1        0.0000
     18 O4         -0.4960    2.9870    2.1170 O.3       1 AAL1        0.0000
     19 HO4        -1.4300    2.6810    2.1790 H         1 AAL1        0.0000
     20 C6         -2.0320    1.0080    0.6810 C.2       1 AAL1        0.0000
     21 O61        -2.6760    1.4170    1.6860 O.co2     1 AAL1        0.0000
     22 O62        -2.4200    0.8420   -0.5020 O.co2     1 AAL1        0.0000
@<TRIPOS>BOND
     1   11   10 1 
     2   10    8 1 
     3    2    1 1 
     4   22   20 ar
     5    8    9 1 
     6    8    1 1 
     7    8   12 1 
     8    7    1 1 
     9    7    5 1 
    10   17   16 1 
    11    1    3 1 
    12   20    5 1 
    13   20   21 ar
    14   13   12 1 
    15    5   16 1 
    16    5    6 1 
    17   12   16 1 
    18   12   14 1 
    19   16   18 1 
    20    3    4 1 
    21   18   19 1 
    22   14   15 1 
