@<TRIPOS>MOLECULE
C:\Users\Praveer\PycharmProjects\pdb_to_mol2_converter\data\pdb\aalt.pdb
   24    24     0     0     0
SMALL
GASTEIGER

@<TRIPOS>ATOM
      1 C1          1.4520   -0.0280    0.0530 C.3       1 AAL1        0.0000
      2 H1          1.7670   -0.6540   -0.8150 H         1 AAL1        0.0000
      3 O1          1.9520   -0.6570    1.1990 O.3       1 AAL1        0.0000
      4 HO1         1.8960   -0.0010    1.9080 H         1 AAL1        0.0000
      5 C5         -0.5330    0.9220    1.0150 C.3       1 AAL1        0.0000
      6 H5         -0.2690    0.5310    2.0270 H         1 AAL1        0.0000
      7 O5          0.0220    0.0610    0.0020 O.3       1 AAL1        0.0000
      8 C2          2.0950    1.3490   -0.0850 C.3       1 AAL1        0.0000
      9 H2          3.1950    1.2470    0.0810 H         1 AAL1        0.0000
     10 O2          1.9210    1.9050   -1.3920 O.3       1 AAL1        0.0000
     11 HO2         2.7330    1.8280   -1.9050 H         1 AAL1        0.0000
     12 C3          1.5390    2.3030    0.9480 C.3       1 AAL1        0.0000
     13 H3          1.9270    3.3290    0.7350 H         1 AAL1        0.0000
     14 O3          1.9770    1.9550    2.2600 O.3       1 AAL1        0.0000
     15 HO3         1.4870    2.5210    2.8740 H         1 AAL1        0.0000
     16 C4          0.0270    2.3320    0.8590 C.3       1 AAL1        0.0000
     17 H4         -0.2590    2.7040   -0.1540 H         1 AAL1        0.0000
     18 O4         -0.5320    3.2140    1.8340 O.3       1 AAL1        0.0000
     19 HO4        -1.1080    3.8590    1.4100 H         1 AAL1        0.0000
     20 C6         -2.0390    0.8570    0.8730 C.3       1 AAL1        0.0000
     21 H61        -2.3400    1.2030   -0.1410 H         1 AAL1        0.0000
     22 H62        -2.5270    1.5180    1.6250 H         1 AAL1        0.0000
     23 O6         -2.5190   -0.4710    1.0740 O.3       1 AAL1        0.0000
     24 HO6        -2.0040   -1.0630    0.5120 H         1 AAL1        0.0000
@<TRIPOS>BOND
     1   11   10 1 
     2   10    8 1 
     3    2    1 1 
     4   17   16 1 
     5   21   20 1 
     6    8    1 1 
     7    8    9 1 
     8    8   12 1 
     9    7    1 1 
    10    7    5 1 
    11    1    3 1 
    12   24   23 1 
    13   13   12 1 
    14   16   12 1 
    15   16    5 1 
    16   16   18 1 
    17   20    5 1 
    18   20   23 1 
    19   20   22 1 
    20   12   14 1 
    21    5    6 1 
    22    3    4 1 
    23   19   18 1 
    24   14   15 1 
