@<TRIPOS>MOLECULE
C:\Users\Praveer\PycharmProjects\pdb_to_mol2_converter\data\pdb\aaltna.pdb
   30    30     0     0     0
SMALL
GASTEIGER

@<TRIPOS>ATOM
      1 C1          1.5570    0.0570    0.1020 C.3       1 AAL1        0.0000
      2 H1          1.9480   -0.5340   -0.7600 H         1 AAL1        0.0000
      3 O1          1.9990   -0.5860    1.2600 O.3       1 AAL1        0.0000
      4 HO1         1.9620    0.0850    1.9610 H         1 AAL1        0.0000
      5 C5         -0.5050    0.9190    0.9860 C.3       1 AAL1        0.0000
      6 H5         -0.2950    0.4490    1.9770 H         1 AAL1        0.0000
      7 O5          0.1370    0.1560   -0.0580 O.3       1 AAL1        0.0000
      8 C2          2.1310    1.4590    0.0250 C.3       1 AAL1        0.0000
      9 H2          3.2350    1.3880    0.2050 H         1 AAL1        0.0000
     10 N           1.9660    2.0020   -1.3180 N.am      1 AAL1        0.0000
     11 HN          1.3860    1.4820   -1.9370 H         1 AAL1        0.0000
     12 C           2.5750    3.1050   -1.7670 C.2       1 AAL1        0.0000
     13 O           3.2800    3.8040   -1.0540 O.2       1 AAL1        0.0000
     14 CT          2.3500    3.4510   -3.2160 C.3       1 AAL1        0.0000
     15 HT1         1.3630    3.0770   -3.5570 H         1 AAL1        0.0000
     16 HT2         3.1550    2.9960   -3.8310 H         1 AAL1        0.0000
     17 HT3         2.3870    4.5530   -3.3410 H         1 AAL1        0.0000
     18 C3          1.5350    2.3340    1.1150 C.3       1 AAL1        0.0000
     19 H3          1.9140    3.3760    0.9950 H         1 AAL1        0.0000
     20 O3          1.9380    1.8960    2.4110 O.3       1 AAL1        0.0000
     21 HO3         1.4150    2.3970    3.0530 H         1 AAL1        0.0000
     22 C4          0.0250    2.3510    0.9950 C.3       1 AAL1        0.0000
     23 H4         -0.2520    2.8230    0.0230 H         1 AAL1        0.0000
     24 O4         -0.5810    3.1090    2.0430 O.3       1 AAL1        0.0000
     25 HO4        -0.8920    3.9610    1.7170 H         1 AAL1        0.0000
     26 C6         -1.9980    0.8420    0.7470 C.3       1 AAL1        0.0000
     27 H61        -2.2440    1.2530   -0.2580 H         1 AAL1        0.0000
     28 H62        -2.5420    1.4430    1.5100 H         1 AAL1        0.0000
     29 O6         -2.4650   -0.5040    0.8280 O.3       1 AAL1        0.0000
     30 HO6        -1.8930   -1.0610    0.2860 H         1 AAL1        0.0000
@<TRIPOS>BOND
     1   16   14 1 
     2   15   14 1 
     3   17   14 1 
     4   14   12 1 
     5   11   10 1 
     6   12   10 am
     7   12   13 2 
     8   10    8 1 
     9    2    1 1 
    10   27   26 1 
    11    7    1 1 
    12    7    5 1 
    13   23   22 1 
    14    8    1 1 
    15    8    9 1 
    16    8   18 1 
    17    1    3 1 
    18   30   29 1 
    19   26   29 1 
    20   26    5 1 
    21   26   28 1 
    22    5   22 1 
    23    5    6 1 
    24   19   18 1 
    25   22   18 1 
    26   22   24 1 
    27   18   20 1 
    28    3    4 1 
    29   25   24 1 
    30   20   21 1 
