@<TRIPOS>MOLECULE
C:\Users\Praveer\PycharmProjects\pdb_to_mol2_converter\data\pdb\aanm.pdb
   22    21     0     0     0
SMALL
GASTEIGER

@<TRIPOS>ATOM
      1 CL         -0.6240   -1.3910   -0.0860 C.3       1 AAN1        0.0000
      2 HL1        -1.7330   -1.3080   -0.1050 H         1 AAN1        0.0000
      3 HL2        -0.3190   -1.9110    0.8450 H         1 AAN1        0.0000
      4 HL3        -0.2950   -1.9860   -0.9640 H         1 AAN1        0.0000
      5 CLP        -0.0280   -0.0350   -0.1390 C.2       1 AAN1        0.0000
      6 OL         -0.6910    0.9350   -0.4810 O.2       1 AAN1        0.0000
      7 NL          1.2600    0.0580    0.2040 N.am      1 AAN1        0.0000
      8 HL          1.8010   -0.7570    0.3930 H         1 AAN1        0.0000
      9 CA          2.0130    1.2880    0.1430 C.3       1 AAN1        0.0000
     10 HA          1.7310    1.8560   -0.7720 H         1 AAN1        0.0000
     11 CB          1.7680    2.1570    1.3970 C.3       1 AAN1        0.0000
     12 HB1         2.0780    1.6150    2.3150 H         1 AAN1        0.0000
     13 HB2         0.6820    2.3800    1.4820 H         1 AAN1        0.0000
     14 HB3         2.3110    3.1220    1.3420 H         1 AAN1        0.0000
     15 CRP         3.4790    0.9160    0.0170 C.2       1 AAN1        0.0000
     16 OR          3.8200   -0.2620   -0.0700 O.2       1 AAN1        0.0000
     17 NR          4.3850    1.9150    0.0010 N.am      1 AAN1        0.0000
     18 HR          4.0910    2.8620    0.0820 H         1 AAN1        0.0000
     19 CR          5.8010    1.6530   -0.1050 C.3       1 AAN1        0.0000
     20 HR1         6.0300    1.0870   -1.0360 H         1 AAN1        0.0000
     21 HR2         6.1580    1.0510    0.7620 H         1 AAN1        0.0000
     22 HR3         6.3750    2.6060   -0.1270 H         1 AAN1        0.0000
@<TRIPOS>BOND
     1   20   19 1 
     2    4    1 1 
     3   10    9 1 
     4    6    5 2 
     5    5    1 1 
     6    5    7 am
     7   22   19 1 
     8    2    1 1 
     9   19   17 1 
    10   19   21 1 
    11    1    3 1 
    12   16   15 2 
    13   17   15 am
    14   17   18 1 
    15   15    9 1 
    16    9    7 1 
    17    9   11 1 
    18    7    8 1 
    19   14   11 1 
    20   11   13 1 
    21   11   12 1 
