@<TRIPOS>MOLECULE
C:\Users\Praveer\PycharmProjects\pdb_to_mol2_converter\data\pdb\aapm.pdb
   31    30     0     0     0
SMALL
GASTEIGER

@<TRIPOS>ATOM
      1 P1          2.4190    1.4810   -0.1450 P.3       1 AAP1        0.0000
      2 OP3         1.8400    2.2740   -1.2920 O.2       1 AAP1        0.0000
      3 OP4         3.9030    1.2530   -0.0380 O.3       1 AAP1        0.0000
      4 OP1         1.6580    0.0420   -0.0930 O.3       1 AAP1        0.0000
      5 OP2         1.9460    2.2130    1.2320 O.3       1 AAP1        0.0000
      6 CP1         0.2640   -0.0560   -0.3730 C.3       1 AAP1        0.0000
      7 HP11       -0.2220    0.9290   -0.5730 H         1 AAP1        0.0000
      8 HP12       -0.2620   -0.5210    0.4890 H         1 AAP1        0.0000
      9 HP13        0.1160   -0.7040   -1.2640 H         1 AAP1        0.0000
     10 C3          1.1800    3.4180    1.1350 C.3       1 AAP1        0.0000
     11 H31         0.2400    3.2530    0.5560 H         1 AAP1        0.0000
     12 H32         1.7640    4.2070    0.6080 H         1 AAP1        0.0000
     13 C1          1.5140    5.2730    2.8680 C.3       1 AAP1        0.0000
     14 H11         2.5980    5.1550    2.6470 H         1 AAP1        0.0000
     15 H12         1.0740    6.0260    2.1770 H         1 AAP1        0.0000
     16 O4          1.3120    5.6450    4.2550 O.3       1 AAP1        0.0000
     17 C5          1.7420    6.8160    4.7320 C.2       1 AAP1        0.0000
     18 O6          1.5590    7.2010    5.8690 O.2       1 AAP1        0.0000
     19 C7          2.5220    7.6420    3.7310 C.3       1 AAP1        0.0000
     20 H71         1.8830    7.9310    2.8750 H         1 AAP1        0.0000
     21 H72         3.4200    7.0920    3.3890 H         1 AAP1        0.0000
     22 H73         2.8560    8.5680    4.2480 H         1 AAP1        0.0000
     23 C2          0.8260    3.9090    2.5610 C.3       1 AAP1        0.0000
     24 H21         1.2430    3.1970    3.3110 H         1 AAP1        0.0000
     25 O8         -0.5910    4.0630    2.6910 O.3       1 AAP1        0.0000
     26 C9         -1.4360    3.0360    2.8400 C.2       1 AAP1        0.0000
     27 O10        -2.6470    3.1660    2.8840 O.2       1 AAP1        0.0000
     28 C11        -0.7990    1.6720    2.9810 C.3       1 AAP1        0.0000
     29 H111       -0.0640    1.6590    3.8100 H         1 AAP1        0.0000
     30 H112       -0.3140    1.3760    2.0310 H         1 AAP1        0.0000
     31 H113       -1.6060    0.9430    3.2070 H         1 AAP1        0.0000
@<TRIPOS>BOND
     1    2    1 2 
     2    9    6 1 
     3    7    6 1 
     4    6    4 1 
     5    6    8 1 
     6    1    4 1 
     7    1    3 1 
     8    1    5 1 
     9   11   10 1 
    10   12   10 1 
    11   10    5 1 
    12   10   23 1 
    13   30   28 1 
    14   15   13 1 
    15   23   25 1 
    16   23   13 1 
    17   23   24 1 
    18   14   13 1 
    19   25   26 1 
    20   26   27 2 
    21   26   28 1 
    22   13   16 1 
    23   20   19 1 
    24   28   31 1 
    25   28   29 1 
    26   21   19 1 
    27   19   22 1 
    28   19   17 1 
    29   16   17 1 
    30   17   18 2 
