@<TRIPOS>MOLECULE
C:\Users\Praveer\PycharmProjects\pdb_to_mol2_converter\data\pdb\aarb.pdb
   20    20     0     0     0
SMALL
GASTEIGER

@<TRIPOS>ATOM
      1 O4          1.4250    0.0180   -0.1420 O.3       1 AAR1        0.0000
      2 C1          1.8510    1.3660    0.0410 C.3       1 AAR1        0.0000
      3 H1          2.7870    1.5020   -0.5460 H         1 AAR1        0.0000
      4 O1          2.1140    1.6060    1.3900 O.3       1 AAR1        0.0000
      5 HO1         2.8270    1.0150    1.6420 H         1 AAR1        0.0000
      6 C4          0.0000    0.0130   -0.0280 C.3       1 AAR1        0.0000
      7 H4         -0.2440    0.1710    1.0470 H         1 AAR1        0.0000
      8 C5         -0.5530   -1.2960   -0.5220 C.3       1 AAR1        0.0000
      9 H51        -0.0930   -2.1420    0.0380 H         1 AAR1        0.0000
     10 H52        -0.3010   -1.4290   -1.6000 H         1 AAR1        0.0000
     11 O5         -1.9740   -1.3380   -0.3670 O.3       1 AAR1        0.0000
     12 HO5        -2.2070   -1.5500    0.5450 H         1 AAR1        0.0000
     13 C2          0.7040    2.2490   -0.5180 C.3       1 AAR1        0.0000
     14 H2          0.3450    2.9320    0.2840 H         1 AAR1        0.0000
     15 O2          1.0670    3.0310   -1.6400 O.3       1 AAR1        0.0000
     16 HO2         0.3640    3.6680   -1.8110 H         1 AAR1        0.0000
     17 C3         -0.3850    1.2200   -0.8690 C.3       1 AAR1        0.0000
     18 H3         -0.3260    0.9510   -1.9490 H         1 AAR1        0.0000
     19 O3         -1.6840    1.6690   -0.5710 O.3       1 AAR1        0.0000
     20 HO3        -2.2910    0.9320   -0.7260 H         1 AAR1        0.0000
@<TRIPOS>BOND
     1   18   17 1 
     2   16   15 1 
     3   15   13 1 
     4   10    8 1 
     5   17   19 1 
     6   17   13 1 
     7   17    6 1 
     8   20   19 1 
     9    3    2 1 
    10    8   11 1 
    11    8    6 1 
    12    8    9 1 
    13   13    2 1 
    14   13   14 1 
    15   11   12 1 
    16    1    6 1 
    17    1    2 1 
    18    6    7 1 
    19    2    4 1 
    20    4    5 1 
