@<TRIPOS>MOLECULE
C:\Users\Praveer\PycharmProjects\pdb_to_mol2_converter\data\pdb\aarbp.pdb
   20    20     0     0     0
SMALL
GASTEIGER

@<TRIPOS>ATOM
      1 C1          1.4680    0.0690   -0.0890 C.3       1 AAR1        0.0000
      2 H1          1.9070   -0.5040    0.7630 H         1 AAR1        0.0000
      3 O1          1.8960   -0.5410   -1.2790 O.3       1 AAR1        0.0000
      4 HO1         1.6900   -1.4780   -1.2030 H         1 AAR1        0.0000
      5 C5         -0.6200    0.8260   -0.9650 C.3       1 AAR1        0.0000
      6 H51        -1.7190    0.7790   -0.7910 H         1 AAR1        0.0000
      7 H52        -0.4310    0.3680   -1.9620 H         1 AAR1        0.0000
      8 O5          0.0450    0.0670    0.0620 O.3       1 AAR1        0.0000
      9 C2          1.9760    1.5040   -0.0080 C.3       1 AAR1        0.0000
     10 H2          3.0800    1.5020   -0.1740 H         1 AAR1        0.0000
     11 O2          1.7650    2.0580    1.2930 O.3       1 AAR1        0.0000
     12 HO2         0.8600    1.8840    1.5800 H         1 AAR1        0.0000
     13 C3          1.3310    2.3790   -1.0620 C.3       1 AAR1        0.0000
     14 H3          1.6220    3.4420   -0.8800 H         1 AAR1        0.0000
     15 O3          1.8130    2.0430   -2.3630 O.3       1 AAR1        0.0000
     16 HO3         1.9250    1.0780   -2.3900 H         1 AAR1        0.0000
     17 C4         -0.1800    2.2790   -0.9660 C.3       1 AAR1        0.0000
     18 H4         -0.5110    2.7410   -0.0060 H         1 AAR1        0.0000
     19 O4         -0.8250    2.9770   -2.0190 O.3       1 AAR1        0.0000
     20 HO4        -0.2340    2.9310   -2.7830 H         1 AAR1        0.0000
@<TRIPOS>BOND
     1   20   19 1 
     2   16   15 1 
     3   15   13 1 
     4   19   17 1 
     5    7    5 1 
     6    3    4 1 
     7    3    1 1 
     8   13   17 1 
     9   13   14 1 
    10   13    9 1 
    11   17    5 1 
    12   17   18 1 
    13    5    6 1 
    14    5    8 1 
    15   10    9 1 
    16    1    9 1 
    17    1    8 1 
    18    1    2 1 
    19    9   11 1 
    20   11   12 1 
