@<TRIPOS>MOLECULE
C:\Users\Praveer\PycharmProjects\pdb_to_mol2_converter\data\pdb\aasc.pdb
   22    22     0     0     0
SMALL
GASTEIGER

@<TRIPOS>ATOM
      1 C1          1.4430   -0.0100   -0.0570 C.3       1 AAS1        0.0000
      2 H1          1.8400   -0.5400    0.8410 H         1 AAS1        0.0000
      3 O1          1.9370   -0.6630   -1.1960 O.3       1 AAS1        0.0000
      4 HO1         1.7130   -1.5920   -1.1050 H         1 AAS1        0.0000
      5 C5         -0.5980    0.6980   -1.0710 C.3       1 AAS1        0.0000
      6 H5         -0.3250    0.2030   -2.0320 H         1 AAS1        0.0000
      7 O5          0.0130   -0.0130    0.0180 O.3       1 AAS1        0.0000
      8 C2          1.9500    1.4290   -0.0250 C.3       1 AAS1        0.0000
      9 H2          3.0610    1.4170   -0.1320 H         1 AAS1        0.0000
     10 O2          1.6590    2.0620    1.2130 O.3       1 AAS1        0.0000
     11 HO2         0.7130    1.9970    1.3780 H         1 AAS1        0.0000
     12 C3          1.3580    2.2520   -1.1310 C.3       1 AAS1        0.0000
     13 H31         1.7520    1.8700   -2.1020 H         1 AAS1        0.0000
     14 H32         1.6800    3.3160   -1.0400 H         1 AAS1        0.0000
     15 C4         -0.1340    2.1540   -1.1160 C.3       1 AAS1        0.0000
     16 H4         -0.5330    2.6670   -0.2080 H         1 AAS1        0.0000
     17 O4         -0.6470    2.8320   -2.2460 O.3       1 AAS1        0.0000
     18 HO4        -0.2130    2.5050   -3.0380 H         1 AAS1        0.0000
     19 C6         -2.1180    0.5540   -0.8790 C.3       1 AAS1        0.0000
     20 H61        -2.4040   -0.5180   -0.8700 H         1 AAS1        0.0000
     21 H62        -2.6630    1.0630   -1.7020 H         1 AAS1        0.0000
     22 H63        -2.4280    1.0100    0.0850 H         1 AAS1        0.0000
@<TRIPOS>BOND
     1   18   17 1 
     2   17   15 1 
     3   13   12 1 
     4    6    5 1 
     5   21   19 1 
     6    3    4 1 
     7    3    1 1 
     8   12   15 1 
     9   12   14 1 
    10   12    8 1 
    11   15    5 1 
    12   15   16 1 
    13    5   19 1 
    14    5    7 1 
    15   19   20 1 
    16   19   22 1 
    17    9    8 1 
    18    1    8 1 
    19    1    7 1 
    20    1    2 1 
    21    8   10 1 
    22   10   11 1 
