@<TRIPOS>MOLECULE
C:\Users\Praveer\PycharmProjects\pdb_to_mol2_converter\data\pdb\abac.pdb
   35    35     0     0     0
SMALL
GASTEIGER

@<TRIPOS>ATOM
      1 C1          1.5030   -0.0780    0.0400 C.3       1 ABA1        0.0000
      2 H1          1.8980   -0.5540    0.9680 H         1 ABA1        0.0000
      3 O1          2.0410   -0.7610   -1.0490 O.3       1 ABA1        0.0000
      4 HO1         1.5690   -0.4450   -1.8240 H         1 ABA1        0.0000
      5 C5         -0.5080    0.4170    1.1670 C.3       1 ABA1        0.0000
      6 H5         -0.0920   -0.0580    2.0860 H         1 ABA1        0.0000
      7 O5          0.0870   -0.1730    0.0110 O.3       1 ABA1        0.0000
      8 C2          1.9210    1.3770   -0.0190 C.3       1 ABA1        0.0000
      9 H2          1.4500    1.8150   -0.9370 H         1 ABA1        0.0000
     10 N           3.3690    1.5170   -0.1590 N.am      1 ABA1        0.0000
     11 HN          3.9110    0.7030    0.0160 H         1 ABA1        0.0000
     12 C           3.9740    2.6020   -0.6570 C.2       1 ABA1        0.0000
     13 O           3.3550    3.6210   -0.9320 O.2       1 ABA1        0.0000
     14 CT          5.4620    2.5040   -0.8700 C.3       1 ABA1        0.0000
     15 HT1         5.6940    1.6380   -1.5240 H         1 ABA1        0.0000
     16 HT2         5.9770    2.3830    0.1050 H         1 ABA1        0.0000
     17 HT3         5.8250    3.4320   -1.3600 H         1 ABA1        0.0000
     18 C3          1.3120    2.0830    1.1810 C.3       1 ABA1        0.0000
     19 H3          1.7240    1.6250    2.1110 H         1 ABA1        0.0000
     20 O3          1.6500    3.4590    1.2190 O.3       1 ABA1        0.0000
     21 HO3         2.1580    3.6930    0.4200 H         1 ABA1        0.0000
     22 C4         -0.1950    1.9120    1.1870 C.3       1 ABA1        0.0000
     23 H4         -0.5760    2.3400    0.2230 H         1 ABA1        0.0000
     24 N4         -0.8290    2.6270    2.2840 N.am      1 ABA1        0.0000
     25 HN4        -0.2730    2.7830    3.0910 H         1 ABA1        0.0000
     26 CN4        -2.0400    3.1970    2.2080 C.2       1 ABA1        0.0000
     27 ON4        -2.7330    3.1530    1.2010 O.2       1 ABA1        0.0000
     28 CT4        -2.5270    3.9060    3.4460 C.3       1 ABA1        0.0000
     29 HT41       -1.9270    4.8230    3.6150 H         1 ABA1        0.0000
     30 HT42       -2.4410    3.2390    4.3270 H         1 ABA1        0.0000
     31 HT43       -3.5930    4.1870    3.3060 H         1 ABA1        0.0000
     32 C6         -2.0020    0.0690    1.0950 C.3       1 ABA1        0.0000
     33 H61        -2.5340    0.4090    2.0070 H         1 ABA1        0.0000
     34 H62        -2.1400   -1.0280    0.9940 H         1 ABA1        0.0000
     35 H63        -2.4640    0.5670    0.2150 H         1 ABA1        0.0000
@<TRIPOS>BOND
     1    4    3 1 
     2   15   14 1 
     3   17   14 1 
     4    3    1 1 
     5    9    8 1 
     6   13   12 2 
     7   14   12 1 
     8   14   16 1 
     9   12   10 am
    10   10    8 1 
    11   10   11 1 
    12    8    1 1 
    13    8   18 1 
    14    7    1 1 
    15    7    5 1 
    16    1    2 1 
    17   35   32 1 
    18   23   22 1 
    19   21   20 1 
    20   34   32 1 
    21   32    5 1 
    22   32   33 1 
    23    5   22 1 
    24    5    6 1 
    25   18   22 1 
    26   18   20 1 
    27   18   19 1 
    28   22   24 1 
    29   27   26 2 
    30   26   24 am
    31   26   28 1 
    32   24   25 1 
    33   31   28 1 
    34   28   29 1 
    35   28   30 1 
