@<TRIPOS>MOLECULE
C:\Users\Praveer\PycharmProjects\pdb_to_mol2_converter\data\pdb\abeq.pdb
   22    22     0     0     0
SMALL
GASTEIGER

@<TRIPOS>ATOM
      1 C1          1.3660    0.0450    0.0200 C.3       1 ABE1        0.0000
      2 H1          1.7050   -0.4960   -0.8950 H         1 ABE1        0.0000
      3 O1          1.9240   -0.6020    1.1370 O.3       1 ABE1        0.0000
      4 HO1         1.6860   -1.5300    1.0670 H         1 ABE1        0.0000
      5 C5         -0.6040    0.7890    1.1370 C.3       1 ABE1        0.0000
      6 H5         -0.2070    0.3930    2.1030 H         1 ABE1        0.0000
      7 O5         -0.0650    0.0240    0.0470 O.3       1 ABE1        0.0000
      8 C2          1.8650    1.4930   -0.0820 C.3       1 ABE1        0.0000
      9 H2          1.5410    1.8830   -1.0770 H         1 ABE1        0.0000
     10 O2          3.2810    1.6020   -0.0380 O.3       1 ABE1        0.0000
     11 HO2         3.5790    1.1180    0.7400 H         1 ABE1        0.0000
     12 C3          1.2890    2.3760    0.9860 C.3       1 ABE1        0.0000
     13 H31         1.5880    3.4360    0.8130 H         1 ABE1        0.0000
     14 H32         1.6990    2.0730    1.9780 H         1 ABE1        0.0000
     15 C4         -0.2020    2.2560    1.0240 C.3       1 ABE1        0.0000
     16 H4         -0.6020    2.8170    1.9030 H         1 ABE1        0.0000
     17 O4         -0.7410    2.8420   -0.1440 O.3       1 ABE1        0.0000
     18 HO4        -0.7350    2.1720   -0.8340 H         1 ABE1        0.0000
     19 C6         -2.1280    0.5650    1.1440 C.3       1 ABE1        0.0000
     20 H61        -2.5990    1.1220    1.9800 H         1 ABE1        0.0000
     21 H62        -2.3550   -0.5160    1.2600 H         1 ABE1        0.0000
     22 H63        -2.5760    0.9150    0.1900 H         1 ABE1        0.0000
@<TRIPOS>BOND
     1    9    8 1 
     2    2    1 1 
     3   18   17 1 
     4   17   15 1 
     5    8   10 1 
     6    8    1 1 
     7    8   12 1 
     8   10   11 1 
     9    1    7 1 
    10    1    3 1 
    11    7    5 1 
    12   22   19 1 
    13   13   12 1 
    14   12   15 1 
    15   12   14 1 
    16   15    5 1 
    17   15   16 1 
    18    4    3 1 
    19    5   19 1 
    20    5    6 1 
    21   19   21 1 
    22   19   20 1 
