@<TRIPOS>MOLECULE
C:\Users\Praveer\PycharmProjects\pdb_to_mol2_converter\data\pdb\ablipa.pdb
  315   316     0     0     0
SMALL
GASTEIGER

@<TRIPOS>ATOM
      1 HB6S       -7.9400    2.5000    1.0850 H         1 ABL1        0.0000
      2 OB6        -6.8060    0.9640    1.9360 O.3       1 ABL1        0.0000
      3 HOB6       -6.0780    0.4030    1.6490 H         1 ABL1        0.0000
      4 CB6        -7.1490    1.7660    0.7990 C.3       1 ABL1        0.0000
      5 HB6R       -7.5780    1.1250   -0.0040 H         1 ABL1        0.0000
      6 CB5        -5.9340    2.5030    0.2710 C.3       1 ABL1        0.0000
      7 OB5        -4.8150    1.6100    0.1100 O.3       1 ABL1        0.0000
      8 HB5        -5.6790    3.2790    1.0340 H         1 ABL1        0.0000
      9 CB1        -3.6180    2.3560   -0.1270 C.3       1 ABL1        0.0000
     10 HB1        -3.4540    3.0720    0.7090 H         1 ABL1        0.0000
     11 OA6        -2.4810    1.5440   -0.2570 O.3       1 ABL1        0.0000
     12 CA6        -2.1540    0.8280    0.9360 C.3       1 ABL1        0.0000
     13 HA6R       -2.5600   -0.2060    0.8650 H         1 ABL1        0.0000
     14 HA6S       -2.5960    1.3130    1.8340 H         1 ABL1        0.0000
     15 CB4        -6.1540    3.1790   -1.0680 C.3       1 ABL1        0.0000
     16 HB4        -6.3280    2.3860   -1.8370 H         1 ABL1        0.0000
     17 OB4        -7.2610    4.0520   -0.8930 O.3       1 ABL1        0.0000
     18 PB         -8.5780    4.0280   -1.8910 P.3       1 ABL1        0.0000
     19 OPB4       -8.6800    5.4590   -2.3970 O.3       1 ABL1        0.0000
     20 OPB3       -9.7210    3.5900   -0.9830 O.3       1 ABL1        0.0000
     21 OPB2       -8.2690    3.0300   -2.9990 O.2       1 ABL1        0.0000
     22 CB3        -4.9390    3.9890   -1.4450 C.3       1 ABL1        0.0000
     23 OB3        -5.1060    4.5780   -2.7430 O.3       1 ABL1        0.0000
     24 HB3        -4.7700    4.7510   -0.6400 H         1 ABL1        0.0000
     25 C71        -5.6300    5.8230   -2.7170 C.2       1 ABL1        0.0000
     26 O71        -5.3340    6.6390   -1.8560 O.2       1 ABL1        0.0000
     27 C72        -5.9420    6.2370   -4.1540 C.3       1 ABL1        0.0000
     28 H72R       -6.9830    5.9010   -4.3600 H         1 ABL1        0.0000
     29 H72S       -5.2530    5.7350   -4.8580 H         1 ABL1        0.0000
     30 CB2        -3.7030    3.1230   -1.4310 C.3       1 ABL1        0.0000
     31 HB2        -3.7910    2.3780   -2.2640 H         1 ABL1        0.0000
     32 NB2        -2.5060    3.9270   -1.5930 N.am      1 ABL1        0.0000
     33 HNB2       -2.2170    4.4160   -0.7810 H         1 ABL1        0.0000
     34 CA4         0.0220    2.1420    1.1570 C.3       1 ABL1        0.0000
     35 HA4        -0.2530    2.6910    0.2260 H         1 ABL1        0.0000
     36 OA4        -0.4880    2.8710    2.2700 O.3       1 ABL1        0.0000
     37 HOA4       -0.2020    3.7900    2.1350 H         1 ABL1        0.0000
     38 CA5        -0.6430    0.7730    1.0790 C.3       1 ABL1        0.0000
     39 HA5        -0.4070    0.2020    2.0080 H         1 ABL1        0.0000
     40 OA5        -0.1450    0.0550   -0.0580 O.3       1 ABL1        0.0000
     41 CA1         1.2700   -0.1810   -0.0060 C.3       1 ABL1        0.0000
     42 HA1         1.5180   -0.6740   -0.9800 H         1 ABL1        0.0000
     43 OA1         1.5740   -1.0280    1.0890 O.3       1 ABL1        0.0000
     44 OPA2        2.5730   -3.0740    2.1470 O.3       1 ABL1        0.0000
     45 OPA3        2.5420   -2.8180   -0.3960 O.2       1 ABL1        0.0000
     46 OPA4        4.0620   -1.3430    0.9880 O.3       1 ABL1        0.0000
     47 PA          2.7650   -2.1570    0.9510 P.3       1 ABL1        0.0000
     48 CA3         1.5450    2.0030    1.1990 C.3       1 ABL1        0.0000
     49 HA3         1.7880    1.4060    2.1140 H         1 ABL1        0.0000
     50 OA3         2.3930    3.1620    1.2300 O.3       1 ABL1        0.0000
     51 C31         2.0290    4.4160    1.1650 C.2       1 ABL1        0.0000
     52 O31         0.8870    4.8600    1.2180 O.2       1 ABL1        0.0000
     53 C32         3.2890    5.2720    1.2660 C.3       1 ABL1        0.0000
     54 H32R        3.9590    4.9830    0.4280 H         1 ABL1        0.0000
     55 H32S        3.7980    5.0250    2.2190 H         1 ABL1        0.0000
     56 CA2         1.9890    1.1540    0.0190 C.3       1 ABL1        0.0000
     57 HA2         1.6230    1.6940   -0.8920 H         1 ABL1        0.0000
     58 NA2         3.4190    0.9630   -0.1450 N.am      1 ABL1        0.0000
     59 HNA2        3.7330    0.0650    0.2350 H         1 ABL1        0.0000
     60 C73        -5.8490    7.7750   -4.2700 C.3       1 ABL1        0.0000
     61 H73R       -6.4170    8.2200   -3.4160 H         1 ABL1        0.0000
     62 O73        -6.3970    8.1490   -5.5440 O.3       1 ABL1        0.0000
     63 C81        -7.1900    9.2190   -5.5440 C.2       1 ABL1        0.0000
     64 O81        -7.4730    9.9000   -4.5800 O.2       1 ABL1        0.0000
     65 C82        -7.3750    9.7000   -6.9910 C.3       1 ABL1        0.0000
     66 H82S       -8.4620    9.7880   -7.1900 H         1 ABL1        0.0000
     67 H82R       -6.9570    8.9310   -7.6720 H         1 ABL1        0.0000
     68 C83        -6.6660   11.0540   -7.2560 C.3       1 ABL1        0.0000
     69 H83R       -6.5660   11.1740   -8.3600 H         1 ABL1        0.0000
     70 H83S       -5.6380   11.0380   -6.8300 H         1 ABL1        0.0000
     71 C84        -7.4210   12.2870   -6.7250 C.3       1 ABL1        0.0000
     72 H84R       -7.4110   12.2730   -5.6120 H         1 ABL1        0.0000
     73 H84S       -8.4830   12.2420   -7.0510 H         1 ABL1        0.0000
     74 C85        -6.7980   13.6050   -7.2200 C.3       1 ABL1        0.0000
     75 H85R       -6.8680   13.6370   -8.3310 H         1 ABL1        0.0000
     76 H85S       -5.7190   13.6160   -6.9480 H         1 ABL1        0.0000
     77 C86        -7.4700   14.8650   -6.6510 C.3       1 ABL1        0.0000
     78 H86R       -7.5040   14.8040   -5.5400 H         1 ABL1        0.0000
     79 H86S       -8.5200   14.8990   -7.0180 H         1 ABL1        0.0000
     80 C87        -6.7430   16.1610   -7.0550 C.3       1 ABL1        0.0000
     81 H87R       -6.3190   16.0420   -8.0770 H         1 ABL1        0.0000
     82 H87S       -5.8860   16.3150   -6.3610 H         1 ABL1        0.0000
     83 C88        -7.6490   17.4060   -7.0510 C.3       1 ABL1        0.0000
     84 H88R       -8.5970   17.1770   -6.5150 H         1 ABL1        0.0000
     85 H88S       -7.9140   17.6530   -8.1040 H         1 ABL1        0.0000
     86 C89        -7.0040   18.6370   -6.3950 C.3       1 ABL1        0.0000
     87 H89R       -6.0300   18.8420   -6.8920 H         1 ABL1        0.0000
     88 H89S       -6.7970   18.4180   -5.3230 H         1 ABL1        0.0000
     89 C810       -7.8870   19.8920   -6.4890 C.3       1 ABL1        0.0000
     90 H810       -8.7720   19.7670   -5.8260 H         1 ABL1        0.0000
     91 H810       -8.2610   19.9970   -7.5330 H         1 ABL1        0.0000
     92 C811       -7.1410   21.1800   -6.1120 C.3       1 ABL1        0.0000
     93 H811       -6.3200   21.3390   -6.8490 H         1 ABL1        0.0000
     94 H811       -6.6700   21.0470   -5.1120 H         1 ABL1        0.0000
     95 C812       -8.0380   22.4210   -6.0850 C.3       1 ABL1        0.0000
     96 H812       -8.8110   22.3240   -5.2920 H         1 ABL1        0.0000
     97 H812       -8.5520   22.5540   -7.0600 H         1 ABL1        0.0000
     98 H812       -7.4370   23.3330   -5.8780 H         1 ABL1        0.0000
     99 C74        -4.3800    8.2810   -4.2330 C.3       1 ABL1        0.0000
    100 H74R       -3.8570    7.8960   -5.1340 H         1 ABL1        0.0000
    101 H74S       -3.8800    7.8290   -3.3480 H         1 ABL1        0.0000
    102 C75        -4.2070    9.8160   -4.1550 C.3       1 ABL1        0.0000
    103 H75R       -5.1660   10.2660   -3.8050 H         1 ABL1        0.0000
    104 H75S       -3.9800   10.2250   -5.1650 H         1 ABL1        0.0000
    105 C76        -3.0940   10.2160   -3.1750 C.3       1 ABL1        0.0000
    106 H76R       -2.1540    9.6830   -3.4470 H         1 ABL1        0.0000
    107 H76S       -3.3900    9.8670   -2.1610 H         1 ABL1        0.0000
    108 C77        -2.8000   11.7250   -3.1040 C.3       1 ABL1        0.0000
    109 H77R       -3.7070   12.3000   -2.8130 H         1 ABL1        0.0000
    110 H77S       -2.5000   12.0520   -4.1230 H         1 ABL1        0.0000
    111 C78        -1.6410   12.0120   -2.1350 C.3       1 ABL1        0.0000
    112 H78R       -0.7700   11.4460   -2.5360 H         1 ABL1        0.0000
    113 H78S       -1.8820   11.6060   -1.1220 H         1 ABL1        0.0000
    114 C79        -1.2140   13.4910   -2.0210 C.3       1 ABL1        0.0000
    115 H79R       -1.8930   14.0140   -1.3280 H         1 ABL1        0.0000
    116 H79S       -1.3580   14.0360   -2.9800 H         1 ABL1        0.0000
    117 C710        0.2480   13.6260   -1.5400 C.3       1 ABL1        0.0000
    118 H710        0.8860   13.0210   -2.2180 H         1 ABL1        0.0000
    119 H710        0.3790   13.1850   -0.5240 H         1 ABL1        0.0000
    120 C711        0.8190   15.0540   -1.5890 C.3       1 ABL1        0.0000
    121 H711        0.4350   15.6330   -0.7220 H         1 ABL1        0.0000
    122 H711        0.4740   15.5780   -2.5100 H         1 ABL1        0.0000
    123 C712        2.3530   15.0590   -1.6060 C.3       1 ABL1        0.0000
    124 H712        2.7120   14.6240   -2.5630 H         1 ABL1        0.0000
    125 H712        2.7620   14.4500   -0.7750 H         1 ABL1        0.0000
    126 H712        2.7720   16.0810   -1.5140 H         1 ABL1        0.0000
    127 C51        -1.7000    3.9490   -2.6530 C.2       1 ABL1        0.0000
    128 O51        -1.9640    3.4390   -3.7370 O.2       1 ABL1        0.0000
    129 C52        -0.3750    4.6070   -2.3930 C.3       1 ABL1        0.0000
    130 H52R        0.2910    3.8310   -1.9510 H         1 ABL1        0.0000
    131 H52S       -0.4920    5.4280   -1.6560 H         1 ABL1        0.0000
    132 C53         0.2730    5.1310   -3.6770 C.3       1 ABL1        0.0000
    133 H53R        0.2270    4.3300   -4.4570 H         1 ABL1        0.0000
    134 O53         1.6080    5.4280   -3.2630 O.3       1 ABL1        0.0000
    135 C61         2.5830    4.9920   -4.0850 C.2       1 ABL1        0.0000
    136 O61         2.3600    4.5950   -5.2190 O.2       1 ABL1        0.0000
    137 C62         3.8690    5.8000   -3.6720 C.3       1 ABL1        0.0000
    138 H62S        3.5740    6.4280   -2.8100 H         1 ABL1        0.0000
    139 O62         4.9640    5.0130   -3.1970 O.3       1 ABL1        0.0000
    140 HO62        5.2060    4.2740   -3.7820 H         1 ABL1        0.0000
    141 C63         4.3800    6.7800   -4.7490 C.3       1 ABL1        0.0000
    142 H63R        5.1780    7.3990   -4.2760 H         1 ABL1        0.0000
    143 H63S        3.5590    7.4650   -5.0500 H         1 ABL1        0.0000
    144 C64         4.9760    6.1150   -5.9890 C.3       1 ABL1        0.0000
    145 H64R        4.2080    5.5170   -6.5280 H         1 ABL1        0.0000
    146 H64S        5.7830    5.4120   -5.6770 H         1 ABL1        0.0000
    147 C65         5.5540    7.1710   -6.9260 C.3       1 ABL1        0.0000
    148 H65R        6.2450    7.8220   -6.3420 H         1 ABL1        0.0000
    149 H65S        4.7350    7.8180   -7.3100 H         1 ABL1        0.0000
    150 C66         6.3190    6.5470   -8.0900 C.3       1 ABL1        0.0000
    151 H66R        5.6430    5.8910   -8.6840 H         1 ABL1        0.0000
    152 H66S        7.1240    5.8990   -7.6760 H         1 ABL1        0.0000
    153 C67         6.9390    7.6140   -8.9950 C.3       1 ABL1        0.0000
    154 H67R        6.8850    8.6070   -8.4920 H         1 ABL1        0.0000
    155 H67S        6.3450    7.6800   -9.9330 H         1 ABL1        0.0000
    156 C68         8.4040    7.3210   -9.3210 C.3       1 ABL1        0.0000
    157 H68R        8.4910    6.2700   -9.6720 H         1 ABL1        0.0000
    158 H68S        9.0240    7.4170   -8.4020 H         1 ABL1        0.0000
    159 C69         8.9470    8.2570  -10.4000 C.3       1 ABL1        0.0000
    160 H69R        8.8120    9.3150  -10.0850 H         1 ABL1        0.0000
    161 H69S        8.3540    8.1010  -11.3310 H         1 ABL1        0.0000
    162 C610       10.4270    7.9960  -10.6900 C.3       1 ABL1        0.0000
    163 H610       10.5560    6.9090  -10.8970 H         1 ABL1        0.0000
    164 H610       11.0340    8.2270   -9.7880 H         1 ABL1        0.0000
    165 C611       10.9360    8.8110  -11.8850 C.3       1 ABL1        0.0000
    166 H611       11.0890    9.8710  -11.5750 H         1 ABL1        0.0000
    167 H611       10.1450    8.8160  -12.6700 H         1 ABL1        0.0000
    168 C612       12.2200    8.2430  -12.4920 C.3       1 ABL1        0.0000
    169 H612       12.0530    7.1970  -12.8280 H         1 ABL1        0.0000
    170 H612       13.0420    8.2370  -11.7450 H         1 ABL1        0.0000
    171 H612       12.5370    8.8410  -13.3720 H         1 ABL1        0.0000
    172 C54        -0.3840    6.4230   -4.2470 C.3       1 ABL1        0.0000
    173 H54R       -0.4750    7.1740   -3.4330 H         1 ABL1        0.0000
    174 H54S       -1.4070    6.1650   -4.5970 H         1 ABL1        0.0000
    175 C55         0.4220    7.0370   -5.4130 C.3       1 ABL1        0.0000
    176 H55R        0.7270    6.2080   -6.0920 H         1 ABL1        0.0000
    177 H55S        1.3440    7.4900   -4.9880 H         1 ABL1        0.0000
    178 C56        -0.2750    8.0880   -6.2970 C.3       1 ABL1        0.0000
    179 H56R       -0.5860    8.9560   -5.6830 H         1 ABL1        0.0000
    180 H56S       -1.1990    7.6460   -6.7320 H         1 ABL1        0.0000
    181 C57         0.6530    8.5400   -7.4490 C.3       1 ABL1        0.0000
    182 H57R        0.3630    7.9900   -8.3710 H         1 ABL1        0.0000
    183 H57S        1.6920    8.2150   -7.2090 H         1 ABL1        0.0000
    184 C58         0.7010   10.0590   -7.7140 C.3       1 ABL1        0.0000
    185 H58R        1.6210   10.4590   -7.2350 H         1 ABL1        0.0000
    186 H58S       -0.1640   10.5560   -7.2230 H         1 ABL1        0.0000
    187 C59         0.7080   10.4500   -9.2080 C.3       1 ABL1        0.0000
    188 H59R       -0.3510   10.5930   -9.5220 H         1 ABL1        0.0000
    189 H59S        1.1280    9.6120   -9.8090 H         1 ABL1        0.0000
    190 C510        1.5200   11.7220   -9.5400 C.3       1 ABL1        0.0000
    191 H510        2.4800   11.4230  -10.0170 H         1 ABL1        0.0000
    192 H510        1.7990   12.2560   -8.6100 H         1 ABL1        0.0000
    193 C511        0.7700   12.7100  -10.4540 C.3       1 ABL1        0.0000
    194 H511       -0.1830   13.0100   -9.9630 H         1 ABL1        0.0000
    195 H511        0.5160   12.1970  -11.4090 H         1 ABL1        0.0000
    196 C512        1.5770   13.9790  -10.7810 C.3       1 ABL1        0.0000
    197 H512        2.5400   13.6850  -11.2540 H         1 ABL1        0.0000
    198 H512        1.8140   14.5240   -9.8400 H         1 ABL1        0.0000
    199 C513        0.8290   14.9220  -11.7380 C.3       1 ABL1        0.0000
    200 H513       -0.0210   15.3890  -11.1920 H         1 ABL1        0.0000
    201 H513        0.3960   14.3130  -12.5650 H         1 ABL1        0.0000
    202 C514        1.7080   16.0170  -12.3530 C.3       1 ABL1        0.0000
    203 H514        2.5340   15.5630  -12.9420 H         1 ABL1        0.0000
    204 H514        2.1510   16.6600  -11.5630 H         1 ABL1        0.0000
    205 H514        1.1080   16.6600  -13.0340 H         1 ABL1        0.0000
    206 C33         3.0130    6.7920    1.2090 C.3       1 ABL1        0.0000
    207 H33R        3.9870    7.3140    1.3750 H         1 ABL1        0.0000
    208 O33         2.1440    7.1680    2.2610 O.3       1 ABL1        0.0000
    209 HO33        1.2930    6.7150    2.2300 H         1 ABL1        0.0000
    210 C34         2.4530    7.2710   -0.1490 C.3       1 ABL1        0.0000
    211 H34R        1.4310    6.8700   -0.3230 H         1 ABL1        0.0000
    212 H34S        3.1280    6.8200   -0.9050 H         1 ABL1        0.0000
    213 C35         2.4370    8.8020   -0.3730 C.3       1 ABL1        0.0000
    214 H35R        3.2650    9.2700    0.2040 H         1 ABL1        0.0000
    215 H35S        1.4850    9.2150    0.0270 H         1 ABL1        0.0000
    216 C36         2.6110    9.1880   -1.8580 C.3       1 ABL1        0.0000
    217 H36R        2.5050    8.2600   -2.4580 H         1 ABL1        0.0000
    218 H36S        3.6360    9.5870   -2.0300 H         1 ABL1        0.0000
    219 C37         1.5670   10.1700   -2.4150 C.3       1 ABL1        0.0000
    220 H37R        1.7180   11.1650   -1.9530 H         1 ABL1        0.0000
    221 H37S        0.5630    9.7860   -2.1130 H         1 ABL1        0.0000
    222 C38         1.6010   10.2650   -3.9550 C.3       1 ABL1        0.0000
    223 H38R        0.6590    9.8420   -4.3550 H         1 ABL1        0.0000
    224 H38S        2.4140    9.5920   -4.3130 H         1 ABL1        0.0000
    225 C39         1.8390   11.6600   -4.5790 C.3       1 ABL1        0.0000
    226 H39R        2.4610   11.4780   -5.4880 H         1 ABL1        0.0000
    227 H39S        2.4390   12.3080   -3.9010 H         1 ABL1        0.0000
    228 C310        0.5500   12.3970   -5.0140 C.3       1 ABL1        0.0000
    229 H310        0.1870   13.0080   -4.1660 H         1 ABL1        0.0000
    230 H310       -0.2640   11.6670   -5.2280 H         1 ABL1        0.0000
    231 C311        0.7230   13.3410   -6.2220 C.3       1 ABL1        0.0000
    232 H311        0.4670   12.7900   -7.1540 H         1 ABL1        0.0000
    233 H311        1.7870   13.6690   -6.2940 H         1 ABL1        0.0000
    234 C312       -0.1700   14.5840   -6.1560 C.3       1 ABL1        0.0000
    235 H312        0.1880   15.2620   -5.3530 H         1 ABL1        0.0000
    236 H312       -1.2230   14.2970   -5.9430 H         1 ABL1        0.0000
    237 H312       -0.1440   15.1470   -7.1150 H         1 ABL1        0.0000
    238 C11         4.1370    1.6270   -1.0600 C.2       1 ABL1        0.0000
    239 O11         3.9080    2.8020   -1.3240 O.2       1 ABL1        0.0000
    240 C12         5.1580    0.8070   -1.8510 C.3       1 ABL1        0.0000
    241 H12R        4.5670    0.0680   -2.4360 H         1 ABL1        0.0000
    242 H12S        5.7950    0.2380   -1.1480 H         1 ABL1        0.0000
    243 C13         6.0010    1.6780   -2.8250 C.3       1 ABL1        0.0000
    244 H13R        5.5010    2.6590   -2.9560 H         1 ABL1        0.0000
    245 O13         6.1480    0.9740   -4.0740 O.3       1 ABL1        0.0000
    246 C21         5.8020    1.6620   -5.1650 C.2       1 ABL1        0.0000
    247 O21         5.3590    2.7960   -5.1750 O.2       1 ABL1        0.0000
    248 C22         6.0540    0.8160   -6.4230 C.3       1 ABL1        0.0000
    249 H22S        5.1150    0.8040   -7.0130 H         1 ABL1        0.0000
    250 H22R        6.2660   -0.2230   -6.0950 H         1 ABL1        0.0000
    251 C23         7.2320    1.3150   -7.3080 C.3       1 ABL1        0.0000
    252 H23R        7.5980    0.4300   -7.8810 H         1 ABL1        0.0000
    253 H23S        8.0790    1.6670   -6.6800 H         1 ABL1        0.0000
    254 C24         6.8600    2.3880   -8.3520 C.3       1 ABL1        0.0000
    255 H24R        6.6400    3.3500   -7.8370 H         1 ABL1        0.0000
    256 H24S        5.9350    2.0700   -8.8840 H         1 ABL1        0.0000
    257 C25         7.9700    2.6070   -9.4040 C.3       1 ABL1        0.0000
    258 H25R        8.2340    1.6250   -9.8570 H         1 ABL1        0.0000
    259 H25S        8.8790    2.9980   -8.8960 H         1 ABL1        0.0000
    260 C26         7.5780    3.5620  -10.5490 C.3       1 ABL1        0.0000
    261 H26R        7.1560    4.5000  -10.1250 H         1 ABL1        0.0000
    262 H26S        6.7730    3.0810  -11.1470 H         1 ABL1        0.0000
    263 C27         8.7580    3.9170  -11.4780 C.3       1 ABL1        0.0000
    264 H27R        9.4040    3.0220  -11.6230 H         1 ABL1        0.0000
    265 H27S        9.3800    4.6900  -10.9730 H         1 ABL1        0.0000
    266 C28         8.3240    4.4390  -12.8650 C.3       1 ABL1        0.0000
    267 H28R        7.3040    4.8760  -12.7850 H         1 ABL1        0.0000
    268 H28S        8.2720    3.5830  -13.5750 H         1 ABL1        0.0000
    269 C29         9.2630    5.5220  -13.4270 C.3       1 ABL1        0.0000
    270 H29R       10.2950    5.1120  -13.4980 H         1 ABL1        0.0000
    271 H29S        9.2760    6.3700  -12.7070 H         1 ABL1        0.0000
    272 C210        8.8470    6.0780  -14.8010 C.3       1 ABL1        0.0000
    273 H210        7.8730    6.6070  -14.6960 H         1 ABL1        0.0000
    274 H210        8.7110    5.2340  -15.5150 H         1 ABL1        0.0000
    275 C211        9.8830    7.0590  -15.3790 C.3       1 ABL1        0.0000
    276 H211       10.7990    6.4860  -15.6490 H         1 ABL1        0.0000
    277 H211       10.1640    7.7900  -14.5900 H         1 ABL1        0.0000
    278 C212        9.4080    7.8470  -16.6030 C.3       1 ABL1        0.0000
    279 H212        8.7190    8.6620  -16.2920 H         1 ABL1        0.0000
    280 H212        8.8820    7.1790  -17.3190 H         1 ABL1        0.0000
    281 H212       10.2730    8.3100  -17.1260 H         1 ABL1        0.0000
    282 C14         7.4090    1.9710   -2.2440 C.3       1 ABL1        0.0000
    283 H14R        7.8170    1.0120   -1.8550 H         1 ABL1        0.0000
    284 H14S        7.2690    2.6560   -1.3790 H         1 ABL1        0.0000
    285 C15         8.4670    2.5830   -3.2000 C.3       1 ABL1        0.0000
    286 H15R        8.7150    1.8520   -4.0000 H         1 ABL1        0.0000
    287 H15S        9.3900    2.7460   -2.5980 H         1 ABL1        0.0000
    288 C16         8.0680    3.9240   -3.8370 C.3       1 ABL1        0.0000
    289 H16R        7.3630    4.4410   -3.1500 H         1 ABL1        0.0000
    290 H16S        7.5430    3.7400   -4.7980 H         1 ABL1        0.0000
    291 C17         9.2230    4.9000   -4.1190 C.3       1 ABL1        0.0000
    292 H17R        9.9740    4.4200   -4.7830 H         1 ABL1        0.0000
    293 H17S        9.7170    5.1600   -3.1570 H         1 ABL1        0.0000
    294 C18         8.6910    6.1830   -4.7810 C.3       1 ABL1        0.0000
    295 H18R        7.9490    6.6450   -4.0900 H         1 ABL1        0.0000
    296 H18S        8.1480    5.8970   -5.7100 H         1 ABL1        0.0000
    297 C19         9.7540    7.2330   -5.1480 C.3       1 ABL1        0.0000
    298 H19R       10.4030    6.8180   -5.9520 H         1 ABL1        0.0000
    299 H19S       10.3890    7.4520   -4.2610 H         1 ABL1        0.0000
    300 C110        9.1050    8.5340   -5.6540 C.3       1 ABL1        0.0000
    301 H110        8.4510    8.9590   -4.8600 H         1 ABL1        0.0000
    302 H110        8.4540    8.2750   -6.5170 H         1 ABL1        0.0000
    303 C111       10.0970    9.6140   -6.1130 C.3       1 ABL1        0.0000
    304 H111       10.9090    9.1470   -6.7140 H         1 ABL1        0.0000
    305 H111       10.5590   10.0890   -5.2180 H         1 ABL1        0.0000
    306 C112        9.4170   10.6910   -6.9740 C.3       1 ABL1        0.0000
    307 H112        8.4670   11.0050   -6.4860 H         1 ABL1        0.0000
    308 H112        9.1550   10.2480   -7.9620 H         1 ABL1        0.0000
    309 C113       10.2900   11.9350   -7.1880 C.3       1 ABL1        0.0000
    310 H113       11.2380   11.6360   -7.6890 H         1 ABL1        0.0000
    311 H113       10.5570   12.3530   -6.1900 H         1 ABL1        0.0000
    312 C114        9.6030   13.0280   -8.0130 C.3       1 ABL1        0.0000
    313 H114        8.6460   13.3310   -7.5350 H         1 ABL1        0.0000
    314 H114        9.3810   12.6620   -9.0380 H         1 ABL1        0.0000
    315 H114       10.2530   13.9260   -8.0930 H         1 ABL1        0.0000
@<TRIPOS>BOND
     1  280  278 1 
     2  281  278 1 
     3  278  279 1 
     4  278  275 1 
     5  276  275 1 
     6  274  272 1 
     7  275  272 1 
     8  275  277 1 
     9  272  273 1 
    10  272  269 1 
    11  268  266 1 
    12  270  269 1 
    13  269  266 1 
    14  269  271 1 
    15  171  168 1 
    16  205  202 1 
    17  203  202 1 
    18  266  267 1 
    19  266  263 1 
    20  169  168 1 
    21  167  165 1 
    22  201  199 1 
    23  168  165 1 
    24  168  170 1 
    25  202  199 1 
    26  202  204 1 
    27  165  166 1 
    28  165  162 1 
    29  199  200 1 
    30  199  196 1 
    31  264  263 1 
    32  263  265 1 
    33  263  260 1 
    34  195  193 1 
    35  161  159 1 
    36  197  196 1 
    37  262  260 1 
    38  163  162 1 
    39  196  193 1 
    40  196  198 1 
    41  162  159 1 
    42  162  164 1 
    43  260  261 1 
    44  260  257 1 
    45  193  194 1 
    46  193  190 1 
    47  159  160 1 
    48  159  156 1 
    49  191  190 1 
    50  155  153 1 
    51  258  257 1 
    52  189  187 1 
    53  157  156 1 
    54  190  187 1 
    55  190  192 1 
    56  188  187 1 
    57  257  259 1 
    58  257  254 1 
    59  156  153 1 
    60  156  158 1 
    61  187  184 1 
    62  314  312 1 
    63  153  154 1 
    64  153  150 1 
    65  256  254 1 
    66  151  150 1 
    67  182  181 1 
    68   69   68 1 
    69  254  255 1 
    70  254  251 1 
    71   75   74 1 
    72   85   83 1 
    73  315  312 1 
    74  150  152 1 
    75  150  147 1 
    76   81   80 1 
    77  312  313 1 
    78  312  309 1 
    79  308  306 1 
    80  252  251 1 
    81  184  181 1 
    82  184  185 1 
    83  184  186 1 
    84  310  309 1 
    85   67   65 1 
    86   91   89 1 
    87  181  183 1 
    88  181  178 1 
    89  149  147 1 
    90  251  253 1 
    91  251  248 1 
    92   68   65 1 
    93   68   70 1 
    94   68   71 1 
    95   74   76 1 
    96   74   71 1 
    97   74   77 1 
    98   66   65 1 
    99  309  306 1 
   100  309  311 1 
   101  232  231 1 
   102  237  234 1 
   103   97   95 1 
   104   80   83 1 
   105   80   77 1 
   106   80   82 1 
   107   83   84 1 
   108   83   86 1 
   109   73   71 1 
   110   79   77 1 
   111  249  248 1 
   112   65   63 1 
   113  306  307 1 
   114  306  303 1 
   115  147  148 1 
   116  147  144 1 
   117   87   86 1 
   118   93   92 1 
   119  180  178 1 
   120   71   72 1 
   121  304  303 1 
   122   77   78 1 
   123  145  144 1 
   124  302  300 1 
   125   89   86 1 
   126   89   92 1 
   127   89   90 1 
   128  248  250 1 
   129  248  246 1 
   130   86   88 1 
   131  178  179 1 
   132  178  175 1 
   133  233  231 1 
   134  231  234 1 
   135  231  228 1 
   136  234  236 1 
   137  234  235 1 
   138  303  300 1 
   139  303  305 1 
   140   92   95 1 
   141   92   94 1 
   142  176  175 1 
   143   95   98 1 
   144   95   96 1 
   145  144  146 1 
   146  144  141 1 
   147  298  297 1 
   148  296  294 1 
   149  300  297 1 
   150  300  301 1 
   151   62   63 1 
   152   62   60 1 
   153   63   64 2 
   154  226  225 1 
   155  175  177 1 
   156  175  172 1 
   157  230  228 1 
   158  136  135 2 
   159  247  246 2 
   160  246  245 1 
   161  104  102 1 
   162  297  294 1 
   163  297  299 1 
   164  100   99 1 
   165  143  141 1 
   166  228  225 1 
   167  228  229 1 
   168   29   27 1 
   169  290  288 1 
   170  292  291 1 
   171  294  291 1 
   172  294  295 1 
   173  141  142 1 
   174  141  137 1 
   175  174  172 1 
   176  225  222 1 
   177  225  227 1 
   178  133  132 1 
   179   28   27 1 
   180  223  222 1 
   181  224  222 1 
   182   60   99 1 
   183   60   27 1 
   184   60   61 1 
   185  172  132 1 
   186  172  173 1 
   187   99  102 1 
   188   99  101 1 
   189  102  103 1 
   190  102  105 1 
   191   27   25 1 
   192  110  108 1 
   193  291  288 1 
   194  291  293 1 
   195  135  137 1 
   196  135  134 1 
   197  245  243 1 
   198  286  285 1 
   199  222  219 1 
   200  288  285 1 
   201  288  289 1 
   202  140  139 1 
   203  128  127 2 
   204  132  134 1 
   205  132  129 1 
   206  137  139 1 
   207  137  138 1 
   208  106  105 1 
   209  285  287 1 
   210  285  282 1 
   211  105  108 1 
   212  105  107 1 
   213  108  109 1 
   214  108  111 1 
   215   21   18 2 
   216  116  114 1 
   217  244  243 1 
   218  243  282 1 
   219  243  240 1 
   220   23   25 1 
   221   23   22 1 
   222   25   26 2 
   223  127  129 1 
   224  127   32 am
   225  124  123 1 
   226  112  111 1 
   227  122  120 1 
   228  217  216 1 
   229  241  240 1 
   230  219  221 1 
   231  219  220 1 
   232  219  216 1 
   233   19   18 1 
   234  129  130 1 
   235  129  131 1 
   236   31   30 1 
   237  282  283 1 
   238  282  284 1 
   239  118  117 1 
   240  111  114 1 
   241  111  113 1 
   242  218  216 1 
   243  114  117 1 
   244  114  115 1 
   245   18   20 1 
   246   18   17 1 
   247  216  213 1 
   248  240  242 1 
   249  240  238 1 
   250   16   15 1 
   251  123  120 1 
   252  123  126 1 
   253  123  125 1 
   254   32   30 1 
   255   32   33 1 
   256  120  117 1 
   257  120  121 1 
   258  117  119 1 
   259   22   30 1 
   260   22   15 1 
   261   22   24 1 
   262   30    9 1 
   263  239  238 2 
   264   15   17 1 
   265   15    6 1 
   266  238   58 am
   267   42   41 1 
   268  212  210 1 
   269   57   56 1 
   270   45   47 2 
   271  213  210 1 
   272  213  215 1 
   273  213  214 1 
   274  211  210 1 
   275   11    9 1 
   276   11   12 1 
   277  210  206 1 
   278   58   56 1 
   279   58   59 1 
   280    9    7 1 
   281    9   10 1 
   282   40   41 1 
   283   40   38 1 
   284   41   56 1 
   285   41   43 1 
   286    5    4 1 
   287   56   48 1 
   288    7    6 1 
   289   35   34 1 
   290    6    4 1 
   291    6    8 1 
   292   54   53 1 
   293    4    1 1 
   294    4    2 1 
   295   13   12 1 
   296   12   38 1 
   297   12   14 1 
   298   47   46 1 
   299   47   43 1 
   300   47   44 1 
   301   38   34 1 
   302   38   39 1 
   303   34   48 1 
   304   34   36 1 
   305   51   52 2 
   306   51   50 1 
   307   51   53 1 
   308   48   50 1 
   309   48   49 1 
   310  206   53 1 
   311  206  207 1 
   312  206  208 1 
   313   53   55 1 
   314    3    2 1 
   315   37   36 1 
   316  209  208 1 
