@<TRIPOS>MOLECULE
C:\Users\Praveer\PycharmProjects\pdb_to_mol2_converter\data\pdb\ablipb.pdb
  280   281     0     0     0
SMALL
GASTEIGER

@<TRIPOS>ATOM
      1 HB6S       -7.9930    2.3230    0.9530 H         1 ABL1        0.0000
      2 OB6        -6.7830    0.8710    1.8500 O.3       1 ABL1        0.0000
      3 HOB6       -5.9870    0.3870    1.6050 H         1 ABL1        0.0000
      4 CB6        -7.1290    1.6600    0.7050 C.3       1 ABL1        0.0000
      5 HB6R       -7.4550    0.9940   -0.1260 H         1 ABL1        0.0000
      6 CB5        -5.9440    2.4950    0.2540 C.3       1 ABL1        0.0000
      7 OB5        -4.7810    1.6560    0.0940 O.3       1 ABL1        0.0000
      8 HB5        -5.7490    3.2440    1.0610 H         1 ABL1        0.0000
      9 CB1        -3.6060    2.4470   -0.1090 C.3       1 ABL1        0.0000
     10 HB1        -3.4690    3.1480    0.7450 H         1 ABL1        0.0000
     11 OA6        -2.4440    1.6670   -0.2460 O.3       1 ABL1        0.0000
     12 CA6        -2.1340    0.9020    0.9240 C.3       1 ABL1        0.0000
     13 HA6R       -2.5810   -0.1120    0.8350 H         1 ABL1        0.0000
     14 HA6S       -2.5460    1.3900    1.8350 H         1 ABL1        0.0000
     15 CB4        -6.1640    3.2280   -1.0560 C.3       1 ABL1        0.0000
     16 HB4        -6.2930    2.4650   -1.8640 H         1 ABL1        0.0000
     17 OB4        -7.3100    4.0470   -0.8680 O.3       1 ABL1        0.0000
     18 PB         -8.5950    4.0430   -1.9110 P.3       1 ABL1        0.0000
     19 OPB4       -8.6420    5.4720   -2.4440 O.3       1 ABL1        0.0000
     20 OPB3       -9.7830    3.6580   -1.0420 O.3       1 ABL1        0.0000
     21 OPB2       -8.2800    3.0190   -2.9930 O.2       1 ABL1        0.0000
     22 CB3        -4.9640    4.0880   -1.3680 C.3       1 ABL1        0.0000
     23 OB3        -5.1190    4.7170   -2.6420 O.3       1 ABL1        0.0000
     24 HB3        -4.8270    4.8200   -0.5300 H         1 ABL1        0.0000
     25 C71        -5.6290    5.9580   -2.6090 C.2       1 ABL1        0.0000
     26 O71        -5.3340    6.7700   -1.7230 O.2       1 ABL1        0.0000
     27 C72        -5.8940    6.3780   -4.0480 C.3       1 ABL1        0.0000
     28 H72R       -6.9370    6.0710   -4.2780 H         1 ABL1        0.0000
     29 H72S       -5.1960    5.8600   -4.7330 H         1 ABL1        0.0000
     30 CB2        -3.7160    3.2400   -1.3960 C.3       1 ABL1        0.0000
     31 HB2        -3.8180    2.5080   -2.2390 H         1 ABL1        0.0000
     32 NB2        -2.5250    4.0520   -1.5830 N.am      1 ABL1        0.0000
     33 HNB2       -2.2010    4.5150   -0.7720 H         1 ABL1        0.0000
     34 CA4         0.0450    2.1540    1.1360 C.3       1 ABL1        0.0000
     35 HA4        -0.2590    2.7130    0.2190 H         1 ABL1        0.0000
     36 OA4        -0.4290    2.8570    2.2800 O.3       1 ABL1        0.0000
     37 HOA4       -0.1680    3.7820    2.1450 H         1 ABL1        0.0000
     38 CA5        -0.6240    0.7910    1.0580 C.3       1 ABL1        0.0000
     39 HA5        -0.3910    0.2080    1.9800 H         1 ABL1        0.0000
     40 OA5        -0.1340    0.0670   -0.0760 O.3       1 ABL1        0.0000
     41 CA1         1.2900   -0.1370   -0.0540 C.3       1 ABL1        0.0000
     42 HA1         1.5000   -0.6490   -1.0260 H         1 ABL1        0.0000
     43 OA1         1.6710   -0.9440    1.0540 O.3       1 ABL1        0.0000
     44 OPA2        2.8640   -2.9200    2.0930 O.3       1 ABL1        0.0000
     45 OPA3        2.5770   -2.7520   -0.4450 O.2       1 ABL1        0.0000
     46 OPA4        4.1670   -1.1900    0.7620 O.3       1 ABL1        0.0000
     47 PA          2.8990   -2.0370    0.8580 P.3       1 ABL1        0.0000
     48 CA3         1.5620    2.0380    1.1160 C.3       1 ABL1        0.0000
     49 HA3         1.8650    1.4650    2.0290 H         1 ABL1        0.0000
     50 OA3         2.3860    3.2070    1.0780 O.3       1 ABL1        0.0000
     51 C31         1.9810    4.4460    1.0360 C.2       1 ABL1        0.0000
     52 O31         0.8540    4.8620    1.1420 O.2       1 ABL1        0.0000
     53 C32         3.2400    5.2830    1.2550 C.3       1 ABL1        0.0000
     54 H32R        3.9910    4.9870    0.4910 H         1 ABL1        0.0000
     55 H32S        3.6390    5.0440    2.2610 H         1 ABL1        0.0000
     56 CA2         1.9720    1.2170   -0.0830 C.3       1 ABL1        0.0000
     57 HA2         1.5630    1.7410   -0.9840 H         1 ABL1        0.0000
     58 NA2         3.4010    1.0860   -0.2750 N.am      1 ABL1        0.0000
     59 HNA2        3.7640    0.2430    0.1850 H         1 ABL1        0.0000
     60 C73        -5.7720    7.9010   -4.1930 C.3       1 ABL1        0.0000
     61 H73R       -6.3330    8.3850   -3.3520 H         1 ABL1        0.0000
     62 O73        -6.2820    8.2620   -5.4820 O.3       1 ABL1        0.0000
     63 C81        -7.1110    9.2940   -5.5120 C.2       1 ABL1        0.0000
     64 O81        -7.4460    9.9800   -4.5470 O.2       1 ABL1        0.0000
     65 C82        -7.3570    9.7060   -6.9640 C.3       1 ABL1        0.0000
     66 H82S       -8.4530    9.7870   -7.1100 H         1 ABL1        0.0000
     67 H82R       -6.9750    8.8990   -7.6240 H         1 ABL1        0.0000
     68 C83        -6.6670   11.0440   -7.3280 C.3       1 ABL1        0.0000
     69 H83R       -6.6690   11.1470   -8.4380 H         1 ABL1        0.0000
     70 H83S       -5.6040   11.0400   -6.9980 H         1 ABL1        0.0000
     71 C84        -7.3870   12.2720   -6.7490 C.3       1 ABL1        0.0000
     72 H84R       -7.3980   12.2120   -5.6360 H         1 ABL1        0.0000
     73 H84S       -8.4450   12.2670   -7.0920 H         1 ABL1        0.0000
     74 C85        -6.7230   13.5890   -7.1680 C.3       1 ABL1        0.0000
     75 H85R       -6.6490   13.6170   -8.2790 H         1 ABL1        0.0000
     76 H85S       -5.6870   13.6190   -6.7580 H         1 ABL1        0.0000
     77 C86        -7.5000   14.8260   -6.6930 C.3       1 ABL1        0.0000
     78 H86R       -7.6390   14.7890   -5.5880 H         1 ABL1        0.0000
     79 H86S       -8.5120   14.8160   -7.1580 H         1 ABL1        0.0000
     80 C87        -6.7840   16.1340   -7.0590 C.3       1 ABL1        0.0000
     81 H87R       -6.3680   16.0530   -8.0890 H         1 ABL1        0.0000
     82 H87S       -5.9240   16.2640   -6.3650 H         1 ABL1        0.0000
     83 C88        -7.6960   17.3690   -6.9950 C.3       1 ABL1        0.0000
     84 H88R       -8.5660   17.1530   -6.3320 H         1 ABL1        0.0000
     85 H88S       -8.0970   17.5680   -8.0160 H         1 ABL1        0.0000
     86 C89        -6.9730   18.6170   -6.4610 C.3       1 ABL1        0.0000
     87 H89R       -6.0570   18.8010   -7.0680 H         1 ABL1        0.0000
     88 H89S       -6.6500   18.4340   -5.4100 H         1 ABL1        0.0000
     89 C810       -7.8630   19.8680   -6.4980 C.3       1 ABL1        0.0000
     90 H810       -8.7400   19.7110   -5.8320 H         1 ABL1        0.0000
     91 H810       -8.2470   20.0060   -7.5340 H         1 ABL1        0.0000
     92 C811       -7.1320   21.1500   -6.0750 C.3       1 ABL1        0.0000
     93 H811       -6.2740   21.3160   -6.7660 H         1 ABL1        0.0000
     94 H811       -6.7150   21.0130   -5.0520 H         1 ABL1        0.0000
     95 C812       -8.0350   22.3880   -6.0900 C.3       1 ABL1        0.0000
     96 H812       -8.8500   22.2850   -5.3410 H         1 ABL1        0.0000
     97 H812       -8.4960   22.5210   -7.0920 H         1 ABL1        0.0000
     98 H812       -7.4510   23.3020   -5.8480 H         1 ABL1        0.0000
     99 C74        -4.3090    8.3690   -4.1400 C.3       1 ABL1        0.0000
    100 H74R       -3.7210    7.9510   -4.9860 H         1 ABL1        0.0000
    101 H74S       -3.8580    7.9730   -3.2010 H         1 ABL1        0.0000
    102 C75        -4.1800    9.8930   -4.0930 C.3       1 ABL1        0.0000
    103 H75R       -5.0900   10.3400   -3.6230 H         1 ABL1        0.0000
    104 H75S       -4.0760   10.3180   -5.1160 H         1 ABL1        0.0000
    105 C76        -3.0090   10.2510   -3.1950 C.3       1 ABL1        0.0000
    106 H76R       -2.0830    9.7430   -3.5440 H         1 ABL1        0.0000
    107 H76S       -3.2330    9.8500   -2.1770 H         1 ABL1        0.0000
    108 C77        -2.8260   11.7520   -3.0350 C.3       1 ABL1        0.0000
    109 H77R       -3.7710   12.1820   -2.6340 H         1 ABL1        0.0000
    110 H77S       -2.6160   12.2310   -4.0200 H         1 ABL1        0.0000
    111 C78        -1.6870   11.9990   -2.0510 C.3       1 ABL1        0.0000
    112 H78R       -0.8080   11.4400   -2.4470 H         1 ABL1        0.0000
    113 H78S       -1.9320   11.5730   -1.0520 H         1 ABL1        0.0000
    114 C79        -1.2720   13.4650   -1.9570 C.3       1 ABL1        0.0000
    115 H79R       -1.9710   14.0760   -1.3530 H         1 ABL1        0.0000
    116 H79S       -1.3170   13.8820   -2.9890 H         1 ABL1        0.0000
    117 C710        0.1680   13.5820   -1.4460 C.3       1 ABL1        0.0000
    118 H710        0.8060   12.9400   -2.0950 H         1 ABL1        0.0000
    119 H710        0.2510   13.2050   -0.4000 H         1 ABL1        0.0000
    120 C711        0.6960   15.0130   -1.5270 C.3       1 ABL1        0.0000
    121 H711        0.3120   15.5690   -0.6430 H         1 ABL1        0.0000
    122 H711        0.2930   15.5090   -2.4400 H         1 ABL1        0.0000
    123 C712        2.2220   15.0980   -1.5370 C.3       1 ABL1        0.0000
    124 H712        2.6410   14.6420   -2.4600 H         1 ABL1        0.0000
    125 H712        2.6440   14.5600   -0.6640 H         1 ABL1        0.0000
    126 H712        2.5500   16.1560   -1.4810 H         1 ABL1        0.0000
    127 C51        -1.7560    4.0930   -2.6770 C.2       1 ABL1        0.0000
    128 O51        -2.0760    3.6550   -3.7720 O.2       1 ABL1        0.0000
    129 C52        -0.3940    4.6860   -2.4210 C.3       1 ABL1        0.0000
    130 H52R        0.2170    3.9000   -1.9230 H         1 ABL1        0.0000
    131 H52S       -0.4930    5.5510   -1.7340 H         1 ABL1        0.0000
    132 C53         0.3200    5.1240   -3.7050 C.3       1 ABL1        0.0000
    133 H53R        0.3130    4.2760   -4.4350 H         1 ABL1        0.0000
    134 O53         1.6400    5.4740   -3.2630 O.3       1 ABL1        0.0000
    135 C61         2.6540    5.0260   -4.0440 C.2       1 ABL1        0.0000
    136 O61         2.4810    4.5350   -5.1260 O.2       1 ABL1        0.0000
    137 C62         3.9190    5.9070   -3.6530 C.3       1 ABL1        0.0000
    138 H62S        3.5580    6.6330   -2.9030 H         1 ABL1        0.0000
    139 O62         5.0060    5.2210   -2.9980 O.3       1 ABL1        0.0000
    140 HO62        4.9740    4.2510   -2.9850 H         1 ABL1        0.0000
    141 C63         4.4510    6.8090   -4.8010 C.3       1 ABL1        0.0000
    142 H63R        5.2540    7.4540   -4.3720 H         1 ABL1        0.0000
    143 H63S        3.6420    7.4900   -5.1460 H         1 ABL1        0.0000
    144 C64         5.0260    6.0750   -6.0140 C.3       1 ABL1        0.0000
    145 H64R        4.2460    5.4580   -6.5140 H         1 ABL1        0.0000
    146 H64S        5.8350    5.3890   -5.6770 H         1 ABL1        0.0000
    147 C65         5.5810    7.0750   -7.0270 C.3       1 ABL1        0.0000
    148 H65R        6.2620    7.7810   -6.4990 H         1 ABL1        0.0000
    149 H65S        4.7470    7.6750   -7.4560 H         1 ABL1        0.0000
    150 C66         6.3610    6.3900   -8.1470 C.3       1 ABL1        0.0000
    151 H66R        5.7230    5.6350   -8.6590 H         1 ABL1        0.0000
    152 H66S        7.2200    5.8460   -7.6980 H         1 ABL1        0.0000
    153 C67         6.8890    7.4050   -9.1600 C.3       1 ABL1        0.0000
    154 H67R        7.1560    8.3510   -8.6360 H         1 ABL1        0.0000
    155 H67S        6.0850    7.6440   -9.8910 H         1 ABL1        0.0000
    156 C68         8.1340    6.9010   -9.8890 C.3       1 ABL1        0.0000
    157 H68R        7.9520    5.8670  -10.2620 H         1 ABL1        0.0000
    158 H68S        8.9810    6.8520   -9.1670 H         1 ABL1        0.0000
    159 C69         8.4930    7.8100  -11.0670 C.3       1 ABL1        0.0000
    160 H69R        8.6300    8.8550  -10.7080 H         1 ABL1        0.0000
    161 H69S        7.6410    7.8100  -11.7870 H         1 ABL1        0.0000
    162 C610        9.7560    7.3440  -11.7940 C.3       1 ABL1        0.0000
    163 H610        9.6230    6.2830  -12.1050 H         1 ABL1        0.0000
    164 H610       10.6230    7.3840  -11.0960 H         1 ABL1        0.0000
    165 C611       10.0580    8.1950  -13.0310 C.3       1 ABL1        0.0000
    166 H611       10.2630    9.2400  -12.7030 H         1 ABL1        0.0000
    167 H611        9.1510    8.2200  -13.6780 H         1 ABL1        0.0000
    168 C612       11.2420    7.6640  -13.8410 C.3       1 ABL1        0.0000
    169 H612       11.0240    6.6400  -14.2160 H         1 ABL1        0.0000
    170 H612       12.1550    7.6170  -13.2080 H         1 ABL1        0.0000
    171 H612       11.4460    8.3210  -14.7130 H         1 ABL1        0.0000
    172 C54        -0.3490    6.3610   -4.3670 C.3       1 ABL1        0.0000
    173 H54R       -0.4960    7.1540   -3.6030 H         1 ABL1        0.0000
    174 H54S       -1.3530    6.0530   -4.7360 H         1 ABL1        0.0000
    175 C55         0.4510    6.9340   -5.5500 C.3       1 ABL1        0.0000
    176 H55R        0.7030    6.0950   -6.2400 H         1 ABL1        0.0000
    177 H55S        1.4080    7.3450   -5.1620 H         1 ABL1        0.0000
    178 C56        -0.2650    8.0320   -6.3530 C.3       1 ABL1        0.0000
    179 H56R       -0.5070    8.8850   -5.6860 H         1 ABL1        0.0000
    180 H56S       -1.2390    7.6470   -6.7310 H         1 ABL1        0.0000
    181 C57         0.5830    8.4920   -7.5520 C.3       1 ABL1        0.0000
    182 H57R        0.1610    8.0150   -8.4660 H         1 ABL1        0.0000
    183 H57S        1.6320    8.1250   -7.4450 H         1 ABL1        0.0000
    184 C58         0.6390   10.0110   -7.7760 C.3       1 ABL1        0.0000
    185 H58R        1.5250   10.4090   -7.2320 H         1 ABL1        0.0000
    186 H58S       -0.2650   10.5010   -7.3510 H         1 ABL1        0.0000
    187 C59         0.7330   10.3580   -9.2720 C.3       1 ABL1        0.0000
    188 H59R       -0.2980   10.4270   -9.6880 H         1 ABL1        0.0000
    189 H59S        1.2400    9.5180   -9.8020 H         1 ABL1        0.0000
    190 C510        1.5190   11.6430   -9.5800 C.3       1 ABL1        0.0000
    191 H510        2.4460   11.3630  -10.1320 H         1 ABL1        0.0000
    192 H510        1.8440   12.1310   -8.6380 H         1 ABL1        0.0000
    193 C511        0.7390   12.6460  -10.4420 C.3       1 ABL1        0.0000
    194 H511       -0.1860   12.9650   -9.9130 H         1 ABL1        0.0000
    195 H511        0.4300   12.1330  -11.3810 H         1 ABL1        0.0000
    196 C512        1.5840   13.8770  -10.8130 C.3       1 ABL1        0.0000
    197 H512        2.5140   13.5270  -11.3150 H         1 ABL1        0.0000
    198 H512        1.8830   14.4170   -9.8870 H         1 ABL1        0.0000
    199 C513        0.8420   14.8420  -11.7480 C.3       1 ABL1        0.0000
    200 H513       -0.0300   15.2640  -11.1980 H         1 ABL1        0.0000
    201 H513        0.4430   14.2600  -12.6110 H         1 ABL1        0.0000
    202 C514        1.7070   15.9890  -12.2830 C.3       1 ABL1        0.0000
    203 H514        2.5620   15.5940  -12.8730 H         1 ABL1        0.0000
    204 H514        2.1090   16.6050  -11.4500 H         1 ABL1        0.0000
    205 H514        1.1070   16.6500  -12.9460 H         1 ABL1        0.0000
    206 C33         2.9600    6.7880    1.1520 C.3       1 ABL1        0.0000
    207 H33R        3.9200    7.3250    1.3590 H         1 ABL1        0.0000
    208 O33         2.0140    7.1900    2.1260 O.3       1 ABL1        0.0000
    209 HO33        1.1500    6.7730    2.0120 H         1 ABL1        0.0000
    210 C34         2.4870    7.2220   -0.2390 C.3       1 ABL1        0.0000
    211 H34R        1.4910    6.8000   -0.4970 H         1 ABL1        0.0000
    212 H34S        3.2300    6.7970   -0.9470 H         1 ABL1        0.0000
    213 C35         2.4670    8.7460   -0.4320 C.3       1 ABL1        0.0000
    214 H35R        3.3160    9.2020    0.1250 H         1 ABL1        0.0000
    215 H35S        1.5320    9.1660   -0.0010 H         1 ABL1        0.0000
    216 C36         2.5990    9.1060   -1.9110 C.3       1 ABL1        0.0000
    217 H36R        2.3880    8.1980   -2.5170 H         1 ABL1        0.0000
    218 H36S        3.6480    9.4180   -2.1240 H         1 ABL1        0.0000
    219 C37         1.6410   10.1910   -2.4030 C.3       1 ABL1        0.0000
    220 H37R        1.9830   11.1610   -1.9770 H         1 ABL1        0.0000
    221 H37S        0.6090    9.9810   -2.0400 H         1 ABL1        0.0000
    222 C38         1.6610   10.2360   -3.9410 C.3       1 ABL1        0.0000
    223 H38R        0.7750    9.7150   -4.3530 H         1 ABL1        0.0000
    224 H38S        2.5530    9.6470   -4.2660 H         1 ABL1        0.0000
    225 C39         1.8360   11.6370   -4.5480 C.3       1 ABL1        0.0000
    226 H39R        2.4600   11.5440   -5.4670 H         1 ABL1        0.0000
    227 H39S        2.4050   12.2730   -3.8350 H         1 ABL1        0.0000
    228 C310        0.5400   12.3550   -4.9580 C.3       1 ABL1        0.0000
    229 H310        0.1720   12.9290   -4.0910 H         1 ABL1        0.0000
    230 H310       -0.2630   11.6350   -5.2230 H         1 ABL1        0.0000
    231 C311        0.7420   13.3340   -6.1240 C.3       1 ABL1        0.0000
    232 H311        0.5360   12.7870   -7.0710 H         1 ABL1        0.0000
    233 H311        1.8080   13.6630   -6.1440 H         1 ABL1        0.0000
    234 C312       -0.1590   14.5710   -6.0550 C.3       1 ABL1        0.0000
    235 H312        0.0930   15.1940   -5.1670 H         1 ABL1        0.0000
    236 H312       -1.2270   14.2690   -5.9880 H         1 ABL1        0.0000
    237 H312       -0.0170   15.1880   -6.9700 H         1 ABL1        0.0000
    238 C11         4.1040    1.6230   -1.2760 C.2       1 ABL1        0.0000
    239 O11         3.8330    2.7150   -1.7880 O.2       1 ABL1        0.0000
    240 C12         5.1990    0.7220   -1.8290 C.3       1 ABL1        0.0000
    241 H12R        4.6660   -0.1120   -2.3420 H         1 ABL1        0.0000
    242 H12S        5.7760    0.2740   -0.9910 H         1 ABL1        0.0000
    243 C13         6.1370    1.4470   -2.8090 C.3       1 ABL1        0.0000
    244 H13R        5.5970    2.2290   -3.3880 H         1 ABL1        0.0000
    245 O13         6.5910    0.4740   -3.7320 O.3       1 ABL1        0.0000
    246 HO13        6.7060   -0.3940   -3.3360 H         1 ABL1        0.0000
    247 C14         7.3690    2.0540   -2.1030 C.3       1 ABL1        0.0000
    248 H14R        7.8320    1.2420   -1.4980 H         1 ABL1        0.0000
    249 H14S        7.0280    2.8400   -1.3950 H         1 ABL1        0.0000
    250 C15         8.4650    2.6440   -3.0200 C.3       1 ABL1        0.0000
    251 H15R        8.7680    1.8970   -3.7860 H         1 ABL1        0.0000
    252 H15S        9.3590    2.8530   -2.3900 H         1 ABL1        0.0000
    253 C16         8.0440    3.9500   -3.7050 C.3       1 ABL1        0.0000
    254 H16R        7.4860    4.5570   -2.9540 H         1 ABL1        0.0000
    255 H16S        7.3420    3.7160   -4.5380 H         1 ABL1        0.0000
    256 C17         9.2240    4.8040   -4.2130 C.3       1 ABL1        0.0000
    257 H17R        9.8500    4.2230   -4.9270 H         1 ABL1        0.0000
    258 H17S        9.8660    5.0910   -3.3490 H         1 ABL1        0.0000
    259 C18         8.7190    6.0810   -4.9000 C.3       1 ABL1        0.0000
    260 H18R        7.9750    6.5670   -4.2270 H         1 ABL1        0.0000
    261 H18S        8.1820    5.7880   -5.8270 H         1 ABL1        0.0000
    262 C19         9.7960    7.1200   -5.2490 C.3       1 ABL1        0.0000
    263 H19R       10.5420    6.6820   -5.9480 H         1 ABL1        0.0000
    264 H19S       10.3260    7.4200   -4.3170 H         1 ABL1        0.0000
    265 C110        9.1480    8.3650   -5.8750 C.3       1 ABL1        0.0000
    266 H110        8.3860    8.7400   -5.1540 H         1 ABL1        0.0000
    267 H110        8.6030    8.0640   -6.7960 H         1 ABL1        0.0000
    268 C111       10.1050    9.5230   -6.2080 C.3       1 ABL1        0.0000
    269 H111       11.0270    9.4650   -5.5910 H         1 ABL1        0.0000
    270 H111        9.5830   10.4660   -5.9250 H         1 ABL1        0.0000
    271 C112       10.4520    9.5850   -7.7060 C.3       1 ABL1        0.0000
    272 H112        9.5300    9.3640   -8.2910 H         1 ABL1        0.0000
    273 H112       11.1930    8.7880   -7.9370 H         1 ABL1        0.0000
    274 C113       10.9740   10.9500   -8.1890 C.3       1 ABL1        0.0000
    275 H113       11.2740   10.8410   -9.2580 H         1 ABL1        0.0000
    276 H113       11.8890   11.2240   -7.6180 H         1 ABL1        0.0000
    277 C114        9.9460   12.0860   -8.0960 C.3       1 ABL1        0.0000
    278 H114        9.7410   12.3490   -7.0360 H         1 ABL1        0.0000
    279 H114        8.9870   11.7830   -8.5710 H         1 ABL1        0.0000
    280 H114       10.3200   12.9950   -8.6140 H         1 ABL1        0.0000
@<TRIPOS>BOND
     1  171  168 1 
     2  169  168 1 
     3  168  170 1 
     4  168  165 1 
     5  167  165 1 
     6  165  166 1 
     7  165  162 1 
     8  205  202 1 
     9  203  202 1 
    10  201  199 1 
    11  202  199 1 
    12  202  204 1 
    13  163  162 1 
    14  162  164 1 
    15  162  159 1 
    16  161  159 1 
    17  199  200 1 
    18  199  196 1 
    19  195  193 1 
    20  197  196 1 
    21  159  160 1 
    22  159  156 1 
    23  196  193 1 
    24  196  198 1 
    25  193  194 1 
    26  193  190 1 
    27  157  156 1 
    28  191  190 1 
    29  155  153 1 
    30  156  158 1 
    31  156  153 1 
    32  189  187 1 
    33  188  187 1 
    34  190  187 1 
    35  190  192 1 
    36  187  184 1 
    37  275  274 1 
    38  153  154 1 
    39  153  150 1 
    40  151  150 1 
    41  280  277 1 
    42  279  277 1 
    43  182  181 1 
    44   69   68 1 
    45  272  271 1 
    46   75   74 1 
    47  274  277 1 
    48  274  271 1 
    49  274  276 1 
    50  150  152 1 
    51  150  147 1 
    52  277  278 1 
    53   81   80 1 
    54   85   83 1 
    55  273  271 1 
    56  184  181 1 
    57  184  186 1 
    58  184  185 1 
    59  271  268 1 
    60   67   65 1 
    61  181  183 1 
    62  181  178 1 
    63   91   89 1 
    64  149  147 1 
    65   68   70 1 
    66   68   65 1 
    67   68   71 1 
    68   74   76 1 
    69   74   71 1 
    70   74   77 1 
    71   79   77 1 
    72   66   65 1 
    73   97   95 1 
    74   73   71 1 
    75  232  231 1 
    76   87   86 1 
    77   80   83 1 
    78   80   77 1 
    79   80   82 1 
    80  147  148 1 
    81  147  144 1 
    82   83   86 1 
    83   83   84 1 
    84  237  234 1 
    85   65   63 1 
    86  267  265 1 
    87   93   92 1 
    88   71   72 1 
    89  180  178 1 
    90   77   78 1 
    91  145  144 1 
    92   89   86 1 
    93   89   92 1 
    94   89   90 1 
    95   86   88 1 
    96  178  179 1 
    97  178  175 1 
    98  176  175 1 
    99  268  270 1 
   100  268  265 1 
   101  268  269 1 
   102  233  231 1 
   103  231  234 1 
   104  231  228 1 
   105   95   92 1 
   106   95   98 1 
   107   95   96 1 
   108   92   94 1 
   109  234  236 1 
   110  234  235 1 
   111  144  146 1 
   112  144  141 1 
   113  263  262 1 
   114  265  262 1 
   115  265  266 1 
   116  261  259 1 
   117  175  177 1 
   118  175  172 1 
   119   63   62 1 
   120   63   64 2 
   121   62   60 1 
   122  226  225 1 
   123  262  259 1 
   124  262  264 1 
   125  230  228 1 
   126  143  141 1 
   127  136  135 2 
   128  104  102 1 
   129  100   99 1 
   130  228  225 1 
   131  228  229 1 
   132  257  256 1 
   133  259  260 1 
   134  259  256 1 
   135  141  142 1 
   136  141  137 1 
   137  174  172 1 
   138   29   27 1 
   139  225  222 1 
   140  225  227 1 
   141  255  253 1 
   142  133  132 1 
   143  172  132 1 
   144  172  173 1 
   145  223  222 1 
   146   28   27 1 
   147  224  222 1 
   148  256  253 1 
   149  256  258 1 
   150   60   99 1 
   151   60   27 1 
   152   60   61 1 
   153   99  102 1 
   154   99  101 1 
   155  102  103 1 
   156  102  105 1 
   157   27   25 1 
   158  135  137 1 
   159  135  134 1 
   160  110  108 1 
   161  222  219 1 
   162  251  250 1 
   163  128  127 2 
   164  245  246 1 
   165  245  243 1 
   166  253  250 1 
   167  253  254 1 
   168  132  134 1 
   169  132  129 1 
   170  137  139 1 
   171  137  138 1 
   172  106  105 1 
   173  244  243 1 
   174  105  108 1 
   175  105  107 1 
   176  108  109 1 
   177  108  111 1 
   178  250  252 1 
   179  250  247 1 
   180  139  140 1 
   181   21   18 2 
   182  116  114 1 
   183  243  247 1 
   184  243  240 1 
   185  127  129 1 
   186  127   32 am
   187   23   25 1 
   188   23   22 1 
   189   25   26 2 
   190  217  216 1 
   191  124  123 1 
   192  112  111 1 
   193   19   18 1 
   194  122  120 1 
   195  129  130 1 
   196  129  131 1 
   197  219  221 1 
   198  219  220 1 
   199  219  216 1 
   200  241  240 1 
   201   31   30 1 
   202  218  216 1 
   203  247  248 1 
   204  247  249 1 
   205  118  117 1 
   206  111  114 1 
   207  111  113 1 
   208  114  117 1 
   209  114  115 1 
   210  216  213 1 
   211   18   20 1 
   212   18   17 1 
   213   16   15 1 
   214  240  238 1 
   215  240  242 1 
   216  239  238 2 
   217   32   30 1 
   218   32   33 1 
   219  123  120 1 
   220  123  126 1 
   221  123  125 1 
   222  120  117 1 
   223  120  121 1 
   224  117  119 1 
   225   30   22 1 
   226   30    9 1 
   227   22   15 1 
   228   22   24 1 
   229  238   58 am
   230   15   17 1 
   231   15    6 1 
   232   42   41 1 
   233   57   56 1 
   234  212  210 1 
   235  211  210 1 
   236   45   47 2 
   237  213  210 1 
   238  213  215 1 
   239  213  214 1 
   240   58   56 1 
   241   58   59 1 
   242   11    9 1 
   243   11   12 1 
   244  210  206 1 
   245    5    4 1 
   246    9    7 1 
   247    9   10 1 
   248   56   41 1 
   249   56   48 1 
   250   40   41 1 
   251   40   38 1 
   252   41   43 1 
   253    7    6 1 
   254   35   34 1 
   255    6    4 1 
   256    6    8 1 
   257   54   53 1 
   258    4    1 1 
   259    4    2 1 
   260   46   47 1 
   261   13   12 1 
   262   47   43 1 
   263   47   44 1 
   264   12   38 1 
   265   12   14 1 
   266   51   50 1 
   267   51   52 2 
   268   51   53 1 
   269   38   34 1 
   270   38   39 1 
   271   50   48 1 
   272   48   34 1 
   273   48   49 1 
   274   34   36 1 
   275  206   53 1 
   276  206  207 1 
   277  206  208 1 
   278   53   55 1 
   279    3    2 1 
   280  209  208 1 
   281   37   36 1 
