@<TRIPOS>MOLECULE
C:\Users\Praveer\PycharmProjects\pdb_to_mol2_converter\data\pdb\abns.pdb
   18    18     0     0     0
SMALL
GASTEIGER

@<TRIPOS>ATOM
      1 H5T        -0.7170    1.4470   -1.8320 H         1 ABN1        0.0000
      2 O5'        -1.0340    2.2730   -1.4470 O.3       1 ABN1        0.0000
      3 C5'        -1.5340    1.9130   -0.1610 C.3       1 ABN1        0.0000
      4 H51'       -2.4250    1.2590   -0.2940 H         1 ABN1        0.0000
      5 H52'       -1.8540    2.8300    0.3810 H         1 ABN1        0.0000
      6 C4'        -0.4740    1.1570    0.6660 C.3       1 ABN1        0.0000
      7 H42'       -0.9670    0.7660    1.5700 H         1 ABN1        0.0000
      8 O4'         0.0290    0.0220   -0.0690 O.3       1 ABN1        0.0000
      9 C1'         1.4580    0.0250   -0.0690 C.3       1 ABN1        0.0000
     10 H11'        1.8210   -0.4130   -1.0100 H         1 ABN1        0.0000
     11 H12'        1.7900   -0.6210    0.7590 H         1 ABN1        0.0000
     12 C2'         1.8540    1.4840    0.1350 C.3       1 ABN1        0.0000
     13 H21'        1.8360    2.0250   -0.8250 H         1 ABN1        0.0000
     14 H22'        2.8680    1.6050    0.5410 H         1 ABN1        0.0000
     15 C3'         0.7540    2.0100    1.0400 C.3       1 ABN1        0.0000
     16 H31'        0.5700    3.0860    0.8930 H         1 ABN1        0.0000
     17 O3'         1.1580    1.8000    2.3900 O.3       1 ABN1        0.0000
     18 H32'        1.4180    0.8810    2.4920 H         1 ABN1        0.0000
@<TRIPOS>BOND
     1    1    2 1 
     2    2    3 1 
     3   10    9 1 
     4   13   12 1 
     5    4    3 1 
     6    3    5 1 
     7    3    6 1 
     8    8    9 1 
     9    8    6 1 
    10    9   12 1 
    11    9   11 1 
    12   12   14 1 
    13   12   15 1 
    14    6   15 1 
    15    6    7 1 
    16   16   15 1 
    17   15   17 1 
    18   17   18 1 
