@<TRIPOS>MOLECULE
C:\Users\Praveer\PycharmProjects\pdb_to_mol2_converter\data\pdb\aboh.pdb
   17    16     0     0     0
SMALL
GASTEIGER

@<TRIPOS>ATOM
      1 C1          1.1420   -0.0190    0.0080 C.3       1 ABO1        0.0000
      2 H11         1.5010   -0.5420    0.9160 H         1 ABO1        0.0000
      3 H12         1.5210   -0.5710   -0.8790 H         1 ABO1        0.0000
      4 H13         0.0330   -0.0510   -0.0140 H         1 ABO1        0.0000
      5 C2          1.6340    1.4370   -0.0360 C.3       1 ABO1        0.0000
      6 H2          2.7460    1.4610    0.0020 H         1 ABO1        0.0000
      7 O2          1.2100    1.9690   -1.2840 O.3       1 ABO1        0.0000
      8 H2O         1.2470    2.9200   -1.1170 H         1 ABO1        0.0000
      9 C3          1.0560    2.2740    1.1220 C.3       1 ABO1        0.0000
     10 H3         -0.0550    2.1570    1.1160 H         1 ABO1        0.0000
     11 N4          1.3970    3.7170    1.0010 N.3       1 ABO1        0.0000
     12 H41         0.9750    4.2720    1.7390 H         1 ABO1        0.0000
     13 H42         2.3960    3.8830    1.0790 H         1 ABO1        0.0000
     14 C5          1.6110    1.7890    2.4680 C.3       1 ABO1        0.0000
     15 H51         2.7200    1.8390    2.4780 H         1 ABO1        0.0000
     16 H52         1.3040    0.7430    2.6720 H         1 ABO1        0.0000
     17 H53         1.2220    2.4170    3.2980 H         1 ABO1        0.0000
@<TRIPOS>BOND
     1    7    8 1 
     2    7    5 1 
     3    3    1 1 
     4    5    6 1 
     5    5    1 1 
     6    5    9 1 
     7    4    1 1 
     8    1    2 1 
     9   11   13 1 
    10   11    9 1 
    11   11   12 1 
    12   10    9 1 
    13    9   14 1 
    14   14   15 1 
    15   14   16 1 
    16   14   17 1 
