@<TRIPOS>MOLECULE
C:\Users\Praveer\PycharmProjects\pdb_to_mol2_converter\data\pdb\acbz.pdb
   19    19     0     0     0
SMALL
GASTEIGER

@<TRIPOS>ATOM
      1 C1          1.4260    0.0250   -0.0120 C.ar      1 ACB1        0.0000
      2 H1          1.9750   -0.9060   -0.0160 H         1 ACB1        0.0000
      3 C2          2.1130    1.2430    0.0380 C.ar      1 ACB1        0.0000
      4 H2          3.1940    1.2520    0.0770 H         1 ACB1        0.0000
      5 C3          1.4020    2.4500    0.0330 C.ar      1 ACB1        0.0000
      6 H3          1.9360    3.3890    0.0640 H         1 ACB1        0.0000
      7 C4          0.0000    2.4370   -0.0110 C.ar      1 ACB1        0.0000
      8 H4         -0.5430    3.3700   -0.0090 H         1 ACB1        0.0000
      9 C5         -0.6980    1.2170   -0.0500 C.ar      1 ACB1        0.0000
     10 C6          0.0250    0.0120   -0.0560 C.ar      1 ACB1        0.0000
     11 H6         -0.5040   -0.9290   -0.0940 H         1 ACB1        0.0000
     12 C7         -2.2140    1.1850   -0.0600 C.3       1 ACB1        0.0000
     13 H71        -2.5990    2.1360    0.3680 H         1 ACB1        0.0000
     14 H72        -2.5480    0.3590    0.6080 H         1 ACB1        0.0000
     15 C8         -2.8370    0.9780   -1.4100 C.2       1 ACB1        0.0000
     16 O8         -3.8430    0.2760   -1.5150 O.2       1 ACB1        0.0000
     17 N8         -2.3200    1.6190   -2.4870 N.am      1 ACB1        0.0000
     18 H81        -1.4480    2.0960   -2.3970 H         1 ACB1        0.0000
     19 H82        -2.7650    1.4500   -3.3630 H         1 ACB1        0.0000
@<TRIPOS>BOND
     1   19   17 1 
     2   17   18 1 
     3   17   15 am
     4   16   15 2 
     5   15   12 1 
     6   11   10 1 
     7   12    9 1 
     8   12   13 1 
     9   12   14 1 
    10   10    9 ar
    11   10    1 ar
    12    9    7 ar
    13    2    1 1 
    14    1    3 ar
    15    7    8 1 
    16    7    5 ar
    17    5    3 ar
    18    5    6 1 
    19    3    4 1 
