@<TRIPOS>MOLECULE
C:\Users\Praveer\PycharmProjects\pdb_to_mol2_converter\data\pdb\aceh.pdb
    8     7     0     0     0
SMALL
GASTEIGER

@<TRIPOS>ATOM
      1 C2          2.0960    1.2420    0.0000 C.3       1 ACE1        0.0000
      2 C1          1.2620   -0.0100   -0.0000 C.2       1 ACE1        0.0000
      3 H21         1.4240    2.1260   -0.0000 H         1 ACE1        0.0000
      4 H22         2.7360    1.2690   -0.9060 H         1 ACE1        0.0000
      5 H23         2.7360    1.2690    0.9060 H         1 ACE1        0.0000
      6 O2          0.0490   -0.0740    0.0000 O.2       1 ACE1        0.0000
      7 O1          2.0260   -1.1470   -0.0000 O.3       1 ACE1        0.0000
      8 HO1         1.4310   -1.8950   -0.0000 H         1 ACE1        0.0000
@<TRIPOS>BOND
     1    4    1 1 
     2    1    2 1 
     3    1    3 1 
     4    1    5 1 
     5    2    6 2 
     6    2    7 1 
     7    7    8 1 
