@<TRIPOS>MOLECULE
C:\Users\Praveer\PycharmProjects\pdb_to_mol2_converter\data\pdb\acet.pdb
    7     6     0     0     0
SMALL
GASTEIGER

@<TRIPOS>ATOM
      1 C1          1.9270    1.3640    0.0030 C.3       1 ACE1        0.0000
      2 C2          1.2660    0.0080    0.0000 C.2       1 ACE1        0.0000
      3 H1          1.6080    1.9150    0.9100 H         1 ACE1        0.0000
      4 H2          1.6090    1.9180   -0.9020 H         1 ACE1        0.0000
      5 H3          3.0280    1.2440    0.0040 H         1 ACE1        0.0000
      6 O1          0.0100    0.0240   -0.0010 O.co2     1 ACE1        0.0000
      7 O2          2.0400   -0.9810   -0.0010 O.co2     1 ACE1        0.0000
@<TRIPOS>BOND
     1    4    1 1 
     2    6    2 ar
     3    7    2 ar
     4    2    1 1 
     5    1    5 1 
     6    1    3 1 
