@<TRIPOS>MOLECULE
C:\Users\Praveer\PycharmProjects\pdb_to_mol2_converter\data\pdb\acho.pdb
   26    25     0     0     0
SMALL
GASTEIGER

@<TRIPOS>ATOM
      1 N           1.4390   -0.0040    0.0200 N.4       1 ACH1        0.0000
      2 C1          1.8640    1.4560    0.2060 C.3       1 ACH1        0.0000
      3 C2          2.1030   -0.5860   -1.1970 C.3       1 ACH1        0.0000
      4 C3          1.8260   -0.8320    1.2120 C.3       1 ACH1        0.0000
      5 C4         -0.0480   -0.0960   -0.1700 C.3       1 ACH1        0.0000
      6 H11         1.2290    1.9130    0.9560 H         1 ACH1        0.0000
      7 H12         1.6740    1.9800   -0.7270 H         1 ACH1        0.0000
      8 H21         3.1830   -0.4400   -1.1330 H         1 ACH1        0.0000
      9 H22         1.7820   -0.0910   -2.1050 H         1 ACH1        0.0000
     10 H23         1.9120   -1.6450   -1.2970 H         1 ACH1        0.0000
     11 H31         1.3660   -0.4650    2.1210 H         1 ACH1        0.0000
     12 H32         2.9020   -0.8210    1.3450 H         1 ACH1        0.0000
     13 H33         1.5280   -1.8670    1.0820 H         1 ACH1        0.0000
     14 H41        -0.3710    0.4670   -1.0380 H         1 ACH1        0.0000
     15 H42        -0.5870    0.2720    0.6950 H         1 ACH1        0.0000
     16 H43        -0.3520   -1.1270   -0.3260 H         1 ACH1        0.0000
     17 C5          3.3420    1.7730    0.5910 C.3       1 ACH1        0.0000
     18 OM          4.2350    1.2110   -0.3850 O.3       1 ACH1        0.0000
     19 C           5.5690    1.2450   -0.2440 C.2       1 ACH1        0.0000
     20 C7          6.0420    2.0010    0.9750 C.3       1 ACH1        0.0000
     21 O           6.3360    0.7030   -1.0180 O.2       1 ACH1        0.0000
     22 H51         3.5420    1.3630    1.6050 H         1 ACH1        0.0000
     23 H52         3.4570    2.8810    0.6240 H         1 ACH1        0.0000
     24 H71         5.7360    1.4770    1.9020 H         1 ACH1        0.0000
     25 H72         5.6730    3.0440    0.9650 H         1 ACH1        0.0000
     26 H73         7.1540    2.0280    0.9480 H         1 ACH1        0.0000
@<TRIPOS>BOND
     1    9    3 1 
     2   10    3 1 
     3    3    8 1 
     4    3    1 1 
     5   14    5 1 
     6   21   19 2 
     7    7    2 1 
     8   18   19 1 
     9   18   17 1 
    10   16    5 1 
    11   19   20 1 
    12    5    1 1 
    13    5   15 1 
    14    1    2 1 
    15    1    4 1 
    16    2   17 1 
    17    2    6 1 
    18   17   23 1 
    19   17   22 1 
    20   26   20 1 
    21   25   20 1 
    22   20   24 1 
    23   13    4 1 
    24    4   12 1 
    25    4   11 1 
