@<TRIPOS>MOLECULE
C:\Users\Praveer\PycharmProjects\pdb_to_mol2_converter\data\pdb\acn.pdb
    6     5     0     0     0
SMALL
GASTEIGER

@<TRIPOS>ATOM
      1 C1          2.6480    0.0030    0.0010 C.3       1 ACN1        0.0000
      2 H11         3.0310    0.0030    1.0430 H         1 ACN1        0.0000
      3 H12         3.0300    0.9050   -0.5200 H         1 ACN1        0.0000
      4 H13         3.0320   -0.8990   -0.5200 H         1 ACN1        0.0000
      5 C2          1.1830    0.0010    0.0020 C.1       1 ACN1        0.0000
      6 N3          0.0050   -0.0010    0.0020 N.1       1 ACN1        0.0000
@<TRIPOS>BOND
     1    3    1 1 
     2    4    1 1 
     3    1    5 1 
     4    1    2 1 
     5    5    6 3 
