@<TRIPOS>MOLECULE
C:\Users\Praveer\PycharmProjects\pdb_to_mol2_converter\data\pdb\aco.pdb
   10     9     0     0     0
SMALL
GASTEIGER

@<TRIPOS>ATOM
      1 O1          2.1890   -0.9380    0.0580 O.2       1 ACO1        0.0000
      2 C1          1.4900    0.0670    0.0220 C.2       1 ACO1        0.0000
      3 C2          0.0010   -0.0140   -0.0000 C.3       1 ACO1        0.0000
      4 C3          2.0860    1.4350   -0.0010 C.3       1 ACO1        0.0000
      5 H21        -0.3020   -1.0810    0.0210 H         1 ACO1        0.0000
      6 H22        -0.3880    0.4580   -0.9260 H         1 ACO1        0.0000
      7 H23        -0.4180    0.5030    0.8870 H         1 ACO1        0.0000
      8 H31         3.1920    1.3470    0.0200 H         1 ACO1        0.0000
      9 H32         1.7490    2.0070    0.8870 H         1 ACO1        0.0000
     10 H33         1.7790    1.9630   -0.9260 H         1 ACO1        0.0000
@<TRIPOS>BOND
     1    6    3 1 
     2   10    4 1 
     3    4    8 1 
     4    4    2 1 
     5    4    9 1 
     6    3    5 1 
     7    3    2 1 
     8    3    7 1 
     9    2    1 2 
