@<TRIPOS>MOLECULE
C:\Users\Praveer\PycharmProjects\pdb_to_mol2_converter\data\pdb\acol.pdb
   22    22     0     0     0
SMALL
GASTEIGER

@<TRIPOS>ATOM
      1 C1          1.4320   -0.0310   -0.0170 C.3       1 ACO1        0.0000
      2 H1          1.8080   -0.5350    0.9040 H         1 ACO1        0.0000
      3 O1          1.9150   -0.7440   -1.1280 O.3       1 ACO1        0.0000
      4 HO1         1.6620   -1.6620   -1.0010 H         1 ACO1        0.0000
      5 C5         -0.5780    0.7030   -1.0670 C.3       1 ACO1        0.0000
      6 H5         -0.2420    0.2520   -2.0300 H         1 ACO1        0.0000
      7 O5          0.0010   -0.0190    0.0320 O.3       1 ACO1        0.0000
      8 C2          1.9660    1.4080   -0.0140 C.3       1 ACO1        0.0000
      9 H2          1.7040    1.8540    0.9760 H         1 ACO1        0.0000
     10 O2          3.3790    1.4800   -0.1370 O.3       1 ACO1        0.0000
     11 HO2         3.6250    0.9520   -0.9060 H         1 ACO1        0.0000
     12 C3          1.3530    2.2510   -1.0930 C.3       1 ACO1        0.0000
     13 H31         1.7040    1.8910   -2.0890 H         1 ACO1        0.0000
     14 H32         1.6830    3.3110   -0.9880 H         1 ACO1        0.0000
     15 C4         -0.1400    2.1650   -1.0480 C.3       1 ACO1        0.0000
     16 H4         -0.5740    2.6910   -1.9310 H         1 ACO1        0.0000
     17 O4         -0.6040    2.8190    0.1170 O.3       1 ACO1        0.0000
     18 HO4        -0.5720    2.1830    0.8390 H         1 ACO1        0.0000
     19 C6         -2.1050    0.5150   -0.9830 C.3       1 ACO1        0.0000
     20 H61        -2.3590   -0.5650   -1.0320 H         1 ACO1        0.0000
     21 H62        -2.6080    1.0400   -1.8210 H         1 ACO1        0.0000
     22 H63        -2.4940    0.9220   -0.0260 H         1 ACO1        0.0000
@<TRIPOS>BOND
     1   13   12 1 
     2    6    5 1 
     3   16   15 1 
     4   21   19 1 
     5    3    4 1 
     6    3    1 1 
     7   12   15 1 
     8   12   14 1 
     9   12    8 1 
    10    5   15 1 
    11    5   19 1 
    12    5    7 1 
    13   15   17 1 
    14   20   19 1 
    15   19   22 1 
    16   11   10 1 
    17   10    8 1 
    18    1    8 1 
    19    1    7 1 
    20    1    2 1 
    21    8    9 1 
    22   17   18 1 
