@<TRIPOS>MOLECULE
C:\Users\Praveer\PycharmProjects\pdb_to_mol2_converter\data\pdb\acrd.pdb
   23    25     0     0     0
SMALL
GASTEIGER

@<TRIPOS>ATOM
      1 C1          2.0660    1.3010    0.0000 C.ar      1 ACR1        0.0000
      2 H1          3.1460    1.3210    0.0000 H         1 ACR1        0.0000
      3 C2          1.3390    2.5000    0.0000 C.ar      1 ACR1        0.0000
      4 H2          1.8590    3.4470    0.0000 H         1 ACR1        0.0000
      5 C3         -0.0620    2.4690   -0.0000 C.ar      1 ACR1        0.0000
      6 H3         -0.6190    3.3950   -0.0000 H         1 ACR1        0.0000
      7 C4         -0.7430    1.2440   -0.0000 C.ar      1 ACR1        0.0000
      8 H4         -1.8240    1.2360   -0.0000 H         1 ACR1        0.0000
      9 C5         -0.0210    0.0430   -0.0000 C.ar      1 ACR1        0.0000
     10 C6         -0.6640   -1.2050   -0.0000 C.ar      1 ACR1        0.0000
     11 H6         -1.7430   -1.2640   -0.0000 H         1 ACR1        0.0000
     12 C7          0.1120   -2.3750   -0.0000 C.ar      1 ACR1        0.0000
     13 C8         -0.4740   -3.6470   -0.0000 C.ar      1 ACR1        0.0000
     14 H8         -1.5500   -3.7580   -0.0000 H         1 ACR1        0.0000
     15 C9          0.3370   -4.7900   -0.0000 C.ar      1 ACR1        0.0000
     16 H9         -0.1160   -5.7720   -0.0000 H         1 ACR1        0.0000
     17 C10         1.7330   -4.6670    0.0000 C.ar      1 ACR1        0.0000
     18 H10         2.3540   -5.5520    0.0000 H         1 ACR1        0.0000
     19 C11         2.3250   -3.3960    0.0000 C.ar      1 ACR1        0.0000
     20 H11         3.4000   -3.2970    0.0000 H         1 ACR1        0.0000
     21 C12         1.5350   -2.2410    0.0000 C.ar      1 ACR1        0.0000
     22 N13         2.1300   -1.0510    0.0000 N.ar      1 ACR1        0.0000
     23 C14         1.4080    0.0660    0.0000 C.ar      1 ACR1        0.0000
@<TRIPOS>BOND
     1    1    2 1 
     2    1    3 ar
     3    1   23 ar
     4    3    4 1 
     5    3    5 ar
     6    5    6 1 
     7    5    7 ar
     8    7    8 1 
     9    7    9 ar
    10    9   10 ar
    11    9   23 ar
    12   10   11 1 
    13   10   12 ar
    14   12   13 ar
    15   12   21 ar
    16   13   14 1 
    17   13   15 ar
    18   15   16 1 
    19   15   17 ar
    20   17   18 1 
    21   17   19 ar
    22   19   20 1 
    23   19   21 ar
    24   21   22 ar
    25   22   23 ar
