@<TRIPOS>MOLECULE
C:\Users\Praveer\PycharmProjects\pdb_to_mol2_converter\data\pdb\adam.pdb
   26    28     0     0     0
SMALL
GASTEIGER

@<TRIPOS>ATOM
      1 C1         -0.0350   -0.0060   -0.0220 C.3       1 ADA1        0.0000
      2 H1         -0.4240   -1.0470   -0.0310 H         1 ADA1        0.0000
      3 C2          1.5090   -0.0280   -0.0170 C.3       1 ADA1        0.0000
      4 H21         1.8790   -0.5600   -0.9190 H         1 ADA1        0.0000
      5 H22         1.8720   -0.5720    0.8800 H         1 ADA1        0.0000
      6 C3          2.0540    1.4170   -0.0050 C.3       1 ADA1        0.0000
      7 H3          3.1650    1.3970   -0.0010 H         1 ADA1        0.0000
      8 C4          1.5430    2.1440    1.2580 C.3       1 ADA1        0.0000
      9 H41         1.9370    3.1820    1.2770 H         1 ADA1        0.0000
     10 H42         1.9060    1.6180    2.1660 H         1 ADA1        0.0000
     11 C5         -0.0010    2.1740    1.2570 C.3       1 ADA1        0.0000
     12 H5         -0.3650    2.6980    2.1670 H         1 ADA1        0.0000
     13 C6         -0.4960    2.9170   -0.0030 C.3       1 ADA1        0.0000
     14 H61        -0.1190    3.9610    0.0050 H         1 ADA1        0.0000
     15 H62        -1.6060    2.9480   -0.0070 H         1 ADA1        0.0000
     16 C7          0.0080    2.1910   -1.2700 C.3       1 ADA1        0.0000
     17 H7         -0.3500    2.7280   -2.1750 H         1 ADA1        0.0000
     18 C8         -0.5300    0.7440   -1.2790 C.3       1 ADA1        0.0000
     19 H81        -1.6400    0.7580   -1.2920 H         1 ADA1        0.0000
     20 H82        -0.1770    0.2190   -2.1910 H         1 ADA1        0.0000
     21 C9          1.5520    2.1620   -1.2610 C.3       1 ADA1        0.0000
     22 H91         1.9220    1.6490   -2.1730 H         1 ADA1        0.0000
     23 H92         1.9460    3.2000   -1.2620 H         1 ADA1        0.0000
     24 C10        -0.5390    0.7260    1.2410 C.3       1 ADA1        0.0000
     25 H101       -0.1930    0.1880    2.1480 H         1 ADA1        0.0000
     26 H102       -1.6490    0.7400    1.2470 H         1 ADA1        0.0000
@<TRIPOS>BOND
     1   20   18 1 
     2   17   16 1 
     3   22   21 1 
     4   19   18 1 
     5   18   16 1 
     6   18    1 1 
     7   16   21 1 
     8   16   13 1 
     9   23   21 1 
    10   21    6 1 
    11    4    3 1 
    12    2    1 1 
    13    1    3 1 
    14    1   24 1 
    15    3    6 1 
    16    3    5 1 
    17   15   13 1 
    18    6    7 1 
    19    6    8 1 
    20   13   14 1 
    21   13   11 1 
    22   24   26 1 
    23   24   11 1 
    24   24   25 1 
    25   11    8 1 
    26   11   12 1 
    27    8    9 1 
    28    8   10 1 
