@<TRIPOS>MOLECULE
C:\Users\Praveer\PycharmProjects\pdb_to_mol2_converter\data\pdb\adarbp.pdb
   20    20     0     0     0
SMALL
GASTEIGER

@<TRIPOS>ATOM
      1 C1          1.4570    0.0660    0.0980 C.3       1 ADA1        0.0000
      2 H1          1.8950   -0.5120   -0.7510 H         1 ADA1        0.0000
      3 O1          1.8790   -0.5420    1.2910 O.3       1 ADA1        0.0000
      4 HO1         1.6720   -1.4790    1.2160 H         1 ADA1        0.0000
      5 C5         -0.6300    0.8370    0.9660 C.3       1 ADA1        0.0000
      6 H51        -0.4470    0.3800    1.9640 H         1 ADA1        0.0000
      7 H52        -1.7290    0.7960    0.7870 H         1 ADA1        0.0000
      8 O5          0.0340    0.0710   -0.0570 O.3       1 ADA1        0.0000
      9 C2          1.9710    1.4980    0.0130 C.3       1 ADA1        0.0000
     10 H2          3.0750    1.4910    0.1800 H         1 ADA1        0.0000
     11 O2          1.7630    2.0490   -1.2900 O.3       1 ADA1        0.0000
     12 HO2         0.8590    1.8760   -1.5760 H         1 ADA1        0.0000
     13 C3          1.3290    2.3790    1.0640 C.3       1 ADA1        0.0000
     14 H3          1.6270    3.4400    0.8790 H         1 ADA1        0.0000
     15 O3          1.8070    2.0450    2.3670 O.3       1 ADA1        0.0000
     16 HO3         1.9120    1.0790    2.3980 H         1 ADA1        0.0000
     17 C4         -0.1820    2.2870    0.9660 C.3       1 ADA1        0.0000
     18 H4         -0.5090    2.7500    0.0050 H         1 ADA1        0.0000
     19 O4         -0.8250    2.9900    2.0160 O.3       1 ADA1        0.0000
     20 HO4        -0.2370    2.9410    2.7820 H         1 ADA1        0.0000
@<TRIPOS>BOND
     1   12   11 1 
     2   11    9 1 
     3    2    1 1 
     4    8    1 1 
     5    8    5 1 
     6   18   17 1 
     7    9    1 1 
     8    9   10 1 
     9    9   13 1 
    10    1    3 1 
    11    7    5 1 
    12   14   13 1 
    13    5   17 1 
    14    5    6 1 
    15   17   13 1 
    16   17   19 1 
    17   13   15 1 
    18    4    3 1 
    19   19   20 1 
    20   15   16 1 
