@<TRIPOS>MOLECULE
C:\Users\Praveer\PycharmProjects\pdb_to_mol2_converter\data\pdb\addg.pdb
   60    60     0     0     0
SMALL
GASTEIGER

@<TRIPOS>ATOM
      1 2C1         1.3930    0.1210    0.1460 C.3       1 ADD1        0.0000
      2 2H1         1.6440   -0.4750   -0.7650 H         1 ADD1        0.0000
      3 2O1         2.0430   -0.5780    1.2000 O.3       1 ADD1        0.0000
      4 2C5        -0.6970    0.9740    1.0430 C.3       1 ADD1        0.0000
      5 2H5        -0.4850    0.7110    2.1030 H         1 ADD1        0.0000
      6 2O5        -0.0380    0.0350    0.1710 O.3       1 ADD1        0.0000
      7 2C2         1.8670    1.5370   -0.1770 C.3       1 ADD1        0.0000
      8 2H2         1.5210    1.7270   -1.2240 H         1 ADD1        0.0000
      9 2O2         3.2930    1.6510   -0.1910 O.3       1 ADD1        0.0000
     10 2HO2        3.6810    0.9260    0.3190 H         1 ADD1        0.0000
     11 2C3         1.2170    2.6170    0.6720 C.3       1 ADD1        0.0000
     12 2H3         1.6460    2.5960    1.6970 H         1 ADD1        0.0000
     13 2O3         1.5070    3.9160    0.1610 O.3       1 ADD1        0.0000
     14 2HO3        2.4550    3.9640   -0.0180 H         1 ADD1        0.0000
     15 2C4        -0.2820    2.4160    0.7560 C.3       1 ADD1        0.0000
     16 2H4        -0.7180    2.6820   -0.2370 H         1 ADD1        0.0000
     17 2O4        -0.8430    3.2920    1.7230 O.3       1 ADD1        0.0000
     18 2HO4       -0.5030    4.1780    1.5390 H         1 ADD1        0.0000
     19 2C6        -2.1850    0.7770    0.8220 C.3       1 ADD1        0.0000
     20 2H61       -2.4490    1.0630   -0.2200 H         1 ADD1        0.0000
     21 2H62       -2.7630    1.4320    1.5120 H         1 ADD1        0.0000
     22 2O6        -2.5790   -0.5780    1.0390 O.3       1 ADD1        0.0000
     23 2HO6       -2.0170   -1.1420    0.4950 H         1 ADD1        0.0000
     24 C1          2.3330    0.1770    2.3710 C.3       1 ADD1        0.0000
     25 H11         1.4590    0.7900    2.6700 H         1 ADD1        0.0000
     26 H12         3.2090    0.8430    2.2070 H         1 ADD1        0.0000
     27 C2          2.6520   -0.6870    3.5940 C.3       1 ADD1        0.0000
     28 H21         3.6250   -1.2010    3.4400 H         1 ADD1        0.0000
     29 H22         1.8720   -1.4700    3.7080 H         1 ADD1        0.0000
     30 C3          2.6750    0.2270    4.8290 C.3       1 ADD1        0.0000
     31 H31         1.6530    0.6520    4.9690 H         1 ADD1        0.0000
     32 H32         3.3590    1.0870    4.6420 H         1 ADD1        0.0000
     33 C4          3.1010   -0.4260    6.1430 C.3       1 ADD1        0.0000
     34 H41         4.1430   -0.8030    6.0460 H         1 ADD1        0.0000
     35 H42         2.4390   -1.2900    6.3700 H         1 ADD1        0.0000
     36 C5          3.0270    0.6100    7.2760 C.3       1 ADD1        0.0000
     37 H51         1.9640    0.9050    7.4260 H         1 ADD1        0.0000
     38 H52         3.5850    1.5200    6.9530 H         1 ADD1        0.0000
     39 C6          3.6250    0.1240    8.5990 C.3       1 ADD1        0.0000
     40 H61         4.6920   -0.1420    8.4260 H         1 ADD1        0.0000
     41 H62         3.0970   -0.7950    8.9360 H         1 ADD1        0.0000
     42 C7          3.5580    1.1790    9.7140 C.3       1 ADD1        0.0000
     43 H71         2.5040    1.3050   10.0440 H         1 ADD1        0.0000
     44 H72         3.9060    2.1610    9.3200 H         1 ADD1        0.0000
     45 C8          4.4420    0.7900   10.9060 C.3       1 ADD1        0.0000
     46 H81         5.5040    0.7990   10.5680 H         1 ADD1        0.0000
     47 H82         4.1970   -0.2480   11.2250 H         1 ADD1        0.0000
     48 C9          4.2960    1.7210   12.1140 C.3       1 ADD1        0.0000
     49 H91         3.3130    1.5290   12.6010 H         1 ADD1        0.0000
     50 H92         4.3070    2.7820   11.7790 H         1 ADD1        0.0000
     51 C10         5.4210    1.5190   13.1370 C.3       1 ADD1        0.0000
     52 H101        6.3770    1.8870   12.7000 H         1 ADD1        0.0000
     53 H102        5.5450    0.4330   13.3480 H         1 ADD1        0.0000
     54 C11         5.1410    2.2530   14.4520 C.3       1 ADD1        0.0000
     55 H111        4.2470    1.7920   14.9300 H         1 ADD1        0.0000
     56 H112        4.8880    3.3130   14.2220 H         1 ADD1        0.0000
     57 C12         6.3180    2.2160   15.4270 C.3       1 ADD1        0.0000
     58 H121        7.1870    2.7630   15.0020 H         1 ADD1        0.0000
     59 H122        6.6270    1.1670   15.6270 H         1 ADD1        0.0000
     60 H123        6.0390    2.6930   16.3910 H         1 ADD1        0.0000
@<TRIPOS>BOND
     1    8    7 1 
     2    2    1 1 
     3   16   15 1 
     4   20   19 1 
     5    9    7 1 
     6    9   10 1 
     7    7    1 1 
     8    7   11 1 
     9   14   13 1 
    10    1    6 1 
    11    1    3 1 
    12   13   11 1 
    13    6    4 1 
    14   23   22 1 
    15   11   15 1 
    16   11   12 1 
    17   15    4 1 
    18   15   17 1 
    19   19   22 1 
    20   19    4 1 
    21   19   21 1 
    22    4    5 1 
    23    3   24 1 
    24   18   17 1 
    25   26   24 1 
    26   24   25 1 
    27   24   27 1 
    28   28   27 1 
    29   27   29 1 
    30   27   30 1 
    31   32   30 1 
    32   30   31 1 
    33   30   33 1 
    34   34   33 1 
    35   33   35 1 
    36   33   36 1 
    37   38   36 1 
    38   36   37 1 
    39   36   39 1 
    40   40   39 1 
    41   39   41 1 
    42   39   42 1 
    43   44   42 1 
    44   42   43 1 
    45   42   45 1 
    46   46   45 1 
    47   45   47 1 
    48   45   48 1 
    49   50   48 1 
    50   48   49 1 
    51   48   51 1 
    52   52   51 1 
    53   51   53 1 
    54   51   54 1 
    55   56   54 1 
    56   54   55 1 
    57   54   57 1 
    58   58   57 1 
    59   57   59 1 
    60   57   60 1 
