@<TRIPOS>MOLECULE
C:\Users\Praveer\PycharmProjects\pdb_to_mol2_converter\data\pdb\addm.pdb
   81    82     0     0     0
SMALL
GASTEIGER

@<TRIPOS>ATOM
      1 1C1         1.7680    2.0580    1.4390 C.3       1 ADD1        0.0000
      2 1H1         0.6740    2.1160    1.6360 H         1 ADD1        0.0000
      3 1C5         3.8500    1.4220    2.4300 C.3       1 ADD1        0.0000
      4 1H5         4.1040    0.8570    1.5020 H         1 ADD1        0.0000
      5 1O5         2.4230    1.5030    2.5850 O.3       1 ADD1        0.0000
      6 1C2         2.2790    3.4670    1.1980 C.3       1 ADD1        0.0000
      7 1H2         1.9790    4.0830    2.0820 H         1 ADD1        0.0000
      8 1O2         1.6750    4.0610    0.0470 O.3       1 ADD1        0.0000
      9 1HO2        1.7490    3.4440   -0.6960 H         1 ADD1        0.0000
     10 1C3         3.7940    3.5000    1.1030 C.3       1 ADD1        0.0000
     11 1H3         4.0980    2.9260    0.1930 H         1 ADD1        0.0000
     12 1O3         4.2770    4.8350    0.9530 O.3       1 ADD1        0.0000
     13 1HO3        3.6800    5.2980    0.3510 H         1 ADD1        0.0000
     14 1C4         4.4120    2.8260    2.3090 C.3       1 ADD1        0.0000
     15 1H4         4.1430    3.4030    3.2270 H         1 ADD1        0.0000
     16 1O4         5.8280    2.7900    2.2070 O.3       1 ADD1        0.0000
     17 1HO4        6.1150    3.6800    1.9610 H         1 ADD1        0.0000
     18 1C6         4.3940    0.6300    3.5980 C.3       1 ADD1        0.0000
     19 1H61        4.1960    1.1680    4.5530 H         1 ADD1        0.0000
     20 1H62        5.4960    0.5070    3.4940 H         1 ADD1        0.0000
     21 1O6         3.7960   -0.6660    3.6540 O.3       1 ADD1        0.0000
     22 1HO6        2.8400   -0.5520    3.7390 H         1 ADD1        0.0000
     23 2C1         0.2030   -1.8690   -1.5470 C.3       1 ADD1        0.0000
     24 2H1        -0.0290   -2.9460   -1.7310 H         1 ADD1        0.0000
     25 2O1        -0.3250   -1.2010   -2.6900 O.3       1 ADD1        0.0000
     26 2C5         2.1700   -0.5820   -1.0780 C.3       1 ADD1        0.0000
     27 2H5         1.9410    0.1450   -1.8900 H         1 ADD1        0.0000
     28 2O5         1.6320   -1.8560   -1.4530 O.3       1 ADD1        0.0000
     29 2C2        -0.3800   -1.5690   -0.1720 C.3       1 ADD1        0.0000
     30 2H2        -0.0080   -2.3960    0.4870 H         1 ADD1        0.0000
     31 2O2        -1.8070   -1.6550   -0.1490 O.3       1 ADD1        0.0000
     32 2HO2       -2.1590   -1.5150   -1.0350 H         1 ADD1        0.0000
     33 2C3         0.1240   -0.2780    0.4550 C.3       1 ADD1        0.0000
     34 2H3        -0.4150    0.5840    0.0080 H         1 ADD1        0.0000
     35 2O3        -0.2110   -0.2580    1.8380 O.3       1 ADD1        0.0000
     36 2HO3       -1.1170   -0.5900    1.9260 H         1 ADD1        0.0000
     37 2C4         1.6200   -0.0650    0.2540 C.3       1 ADD1        0.0000
     38 2H4         2.1570   -0.6180    1.0630 H         1 ADD1        0.0000
     39 2O4         2.0120    1.3150    0.2670 O.3       1 ADD1        0.0000
     40 2C6         3.6800   -0.7210   -1.0450 C.3       1 ADD1        0.0000
     41 2H61        3.9810   -1.4910   -0.2990 H         1 ADD1        0.0000
     42 2H62        4.1450    0.2450   -0.7490 H         1 ADD1        0.0000
     43 2O6         4.1960   -1.0790   -2.3290 O.3       1 ADD1        0.0000
     44 2HO6        3.7790   -1.9050   -2.6050 H         1 ADD1        0.0000
     45 C1         -0.7490    0.1510   -2.5240 C.3       1 ADD1        0.0000
     46 H11         0.0200    0.7410   -1.9900 H         1 ADD1        0.0000
     47 H12        -1.7000    0.2030   -1.9490 H         1 ADD1        0.0000
     48 C2         -0.9530    0.8910   -3.8560 C.3       1 ADD1        0.0000
     49 H21        -1.8590    0.4930   -4.3640 H         1 ADD1        0.0000
     50 H22        -0.0760    0.7100   -4.5160 H         1 ADD1        0.0000
     51 C3         -1.0900    2.4000   -3.6000 C.3       1 ADD1        0.0000
     52 H31        -0.1330    2.7760   -3.1720 H         1 ADD1        0.0000
     53 H32        -1.8850    2.5680   -2.8380 H         1 ADD1        0.0000
     54 C4         -1.4280    3.2490   -4.8310 C.3       1 ADD1        0.0000
     55 H41        -2.4180    2.9340   -5.2290 H         1 ADD1        0.0000
     56 H42        -0.6660    3.0860   -5.6260 H         1 ADD1        0.0000
     57 C5         -1.4700    4.7400   -4.4570 C.3       1 ADD1        0.0000
     58 H51        -0.4350    5.0870   -4.2390 H         1 ADD1        0.0000
     59 H52        -2.0630    4.8560   -3.5200 H         1 ADD1        0.0000
     60 C6         -2.0990    5.6460   -5.5230 C.3       1 ADD1        0.0000
     61 H61        -3.1630    5.3450   -5.6590 H         1 ADD1        0.0000
     62 H62        -1.5770    5.5080   -6.4950 H         1 ADD1        0.0000
     63 C7         -2.0470    7.1300   -5.1220 C.3       1 ADD1        0.0000
     64 H71        -0.9920    7.4810   -5.1660 H         1 ADD1        0.0000
     65 H72        -2.3960    7.2280   -4.0690 H         1 ADD1        0.0000
     66 C8         -2.9290    8.0230   -6.0060 C.3       1 ADD1        0.0000
     67 H81        -3.9890    7.7060   -5.8790 H         1 ADD1        0.0000
     68 H82        -2.6580    7.8750   -7.0760 H         1 ADD1        0.0000
     69 C9         -2.8200    9.5200   -5.6720 C.3       1 ADD1        0.0000
     70 H91        -1.8190    9.8910   -5.9860 H         1 ADD1        0.0000
     71 H92        -2.9040    9.6670   -4.5720 H         1 ADD1        0.0000
     72 C10        -3.9190   10.3390   -6.3650 C.3       1 ADD1        0.0000
     73 H101       -4.9030   10.0620   -5.9250 H         1 ADD1        0.0000
     74 H102       -3.9450   10.0680   -7.4450 H         1 ADD1        0.0000
     75 C11        -3.7260   11.8560   -6.2490 C.3       1 ADD1        0.0000
     76 H111       -2.7760   12.1350   -6.7610 H         1 ADD1        0.0000
     77 H112       -3.6260   12.1320   -5.1750 H         1 ADD1        0.0000
     78 C12        -4.8830   12.6460   -6.8670 C.3       1 ADD1        0.0000
     79 H121       -5.8240   12.4450   -6.3110 H         1 ADD1        0.0000
     80 H122       -5.0310   12.3450   -7.9270 H         1 ADD1        0.0000
     81 H123       -4.6790   13.7380   -6.8350 H         1 ADD1        0.0000
@<TRIPOS>BOND
     1   80   78 1 
     2   74   72 1 
     3   68   66 1 
     4   78   81 1 
     5   78   79 1 
     6   78   75 1 
     7   76   75 1 
     8   62   60 1 
     9   72   75 1 
    10   72   73 1 
    11   72   69 1 
    12   75   77 1 
    13   66   67 1 
    14   66   69 1 
    15   66   63 1 
    16   70   69 1 
    17   69   71 1 
    18   61   60 1 
    19   56   54 1 
    20   60   63 1 
    21   60   57 1 
    22   55   54 1 
    23   64   63 1 
    24   63   65 1 
    25   54   57 1 
    26   54   51 1 
    27   50   48 1 
    28   57   58 1 
    29   57   59 1 
    30   49   48 1 
    31   48   51 1 
    32   48   45 1 
    33   51   52 1 
    34   51   53 1 
    35   25   45 1 
    36   25   23 1 
    37   44   43 1 
    38   45   46 1 
    39   45   47 1 
    40   43   40 1 
    41   27   26 1 
    42   24   23 1 
    43   23   28 1 
    44   23   29 1 
    45   28   26 1 
    46   26   40 1 
    47   26   37 1 
    48   40   42 1 
    49   40   41 1 
    50   32   31 1 
    51    9    8 1 
    52   29   31 1 
    53   29   33 1 
    54   29   30 1 
    55   34   33 1 
    56    8    6 1 
    57   11   10 1 
    58   37   39 1 
    59   37   33 1 
    60   37   38 1 
    61   39    1 1 
    62   13   12 1 
    63   33   35 1 
    64   12   10 1 
    65   10    6 1 
    66   10   14 1 
    67    6    1 1 
    68    6    7 1 
    69    1    2 1 
    70    1    5 1 
    71    4    3 1 
    72   35   36 1 
    73   17   16 1 
    74   16   14 1 
    75   14    3 1 
    76   14   15 1 
    77    3    5 1 
    78    3   18 1 
    79   20   18 1 
    80   18   21 1 
    81   18   19 1 
    82   21   22 1 
