@<TRIPOS>MOLECULE
C:\Users\Praveer\PycharmProjects\pdb_to_mol2_converter\data\pdb\adeo.pdb
   19    19     0     0     0
SMALL
GASTEIGER

@<TRIPOS>ATOM
      1 O4          1.3820   -0.0010    0.0620 O.3       1 ADE1        0.0000
      2 C1          1.8720    1.3360   -0.0110 C.3       1 ADE1        0.0000
      3 H1          2.7100    1.3430   -0.7450 H         1 ADE1        0.0000
      4 O1          2.3200    1.7550    1.2310 O.3       1 ADE1        0.0000
      5 HO1         2.9290    1.0820    1.5380 H         1 ADE1        0.0000
      6 C4         -0.0480    0.0340    0.0160 C.3       1 ADE1        0.0000
      7 H4         -0.3990    0.3020    1.0390 H         1 ADE1        0.0000
      8 C5         -0.5810   -1.3060   -0.4110 C.3       1 ADE1        0.0000
      9 H51        -0.2100   -2.1010    0.2760 H         1 ADE1        0.0000
     10 H52        -0.2130   -1.5470   -1.4350 H         1 ADE1        0.0000
     11 O5         -2.0110   -1.3120   -0.4170 O.3       1 ADE1        0.0000
     12 HO5        -2.3500   -1.3950    0.4810 H         1 ADE1        0.0000
     13 C2          0.7000    2.1860   -0.4720 C.3       1 ADE1        0.0000
     14 H21         0.9780    2.9180   -1.2400 H         1 ADE1        0.0000
     15 H22         0.2750    2.7660    0.3660 H         1 ADE1        0.0000
     16 C3         -0.2950    1.1620   -0.9680 C.3       1 ADE1        0.0000
     17 H3         -0.0830    0.8460   -2.0140 H         1 ADE1        0.0000
     18 O3         -1.6040    1.6360   -0.8440 O.3       1 ADE1        0.0000
     19 HO3        -2.2000    0.8930   -1.0100 H         1 ADE1        0.0000
@<TRIPOS>BOND
     1   17   16 1 
     2   10    8 1 
     3   14   13 1 
     4   19   18 1 
     5   16   18 1 
     6   16   13 1 
     7   16    6 1 
     8    3    2 1 
     9   13    2 1 
    10   13   15 1 
    11   11    8 1 
    12   11   12 1 
    13    8    6 1 
    14    8    9 1 
    15    2    1 1 
    16    2    4 1 
    17    6    1 1 
    18    6    7 1 
    19    4    5 1 
