@<TRIPOS>MOLECULE
C:\Users\Praveer\PycharmProjects\pdb_to_mol2_converter\data\pdb\adfucf.pdb
   23    23     0     0     0
SMALL
GASTEIGER

@<TRIPOS>ATOM
      1 O4          1.4900    0.2650    0.5270 O.3       1 ADF1        0.0000
      2 C1          1.9940    1.4450   -0.0870 C.3       1 ADF1        0.0000
      3 H1          2.3170    1.1830   -1.1190 H         1 ADF1        0.0000
      4 O1          3.0670    1.9050    0.6750 O.3       1 ADF1        0.0000
      5 HO1         3.4770    1.1060    1.0230 H         1 ADF1        0.0000
      6 C4          0.1070    0.1130    0.1570 C.3       1 ADF1        0.0000
      7 H4          0.0900   -0.6540   -0.6540 H         1 ADF1        0.0000
      8 C2          0.7970    2.4240   -0.0950 C.3       1 ADF1        0.0000
      9 H2          0.9330    3.1980   -0.8790 H         1 ADF1        0.0000
     10 O2          0.5910    3.0880    1.1380 O.3       1 ADF1        0.0000
     11 HO2         1.4670    3.1950    1.5320 H         1 ADF1        0.0000
     12 C3         -0.3630    1.4730   -0.4000 C.3       1 ADF1        0.0000
     13 H3         -1.3030    1.8290    0.0700 H         1 ADF1        0.0000
     14 O3         -0.5660    1.4020   -1.7940 O.3       1 ADF1        0.0000
     15 HO3        -1.4710    1.1310   -1.9800 H         1 ADF1        0.0000
     16 C5         -0.6870   -0.4680    1.3180 C.3       1 ADF1        0.0000
     17 H5         -0.3490   -1.5200    1.4770 H         1 ADF1        0.0000
     18 O5         -2.0800   -0.4830    1.0390 O.3       1 ADF1        0.0000
     19 HO5        -2.4270    0.3160    1.4470 H         1 ADF1        0.0000
     20 C6         -0.4880    0.3090    2.6270 C.3       1 ADF1        0.0000
     21 H61        -0.8430    1.3570    2.5370 H         1 ADF1        0.0000
     22 H62         0.5900    0.3290    2.9000 H         1 ADF1        0.0000
     23 H63        -1.0400   -0.1820    3.4560 H         1 ADF1        0.0000
@<TRIPOS>BOND
     1   15   14 1 
     2   14   12 1 
     3    3    2 1 
     4    9    8 1 
     5    7    6 1 
     6   12    8 1 
     7   12   13 1 
     8   12    6 1 
     9    8    2 1 
    10    8   10 1 
    11    2    1 1 
    12    2    4 1 
    13    6    1 1 
    14    6   16 1 
    15    4    5 1 
    16   18   16 1 
    17   18   19 1 
    18   10   11 1 
    19   16   17 1 
    20   16   20 1 
    21   21   20 1 
    22   20   22 1 
    23   20   23 1 
