@<TRIPOS>MOLECULE
C:\Users\Praveer\PycharmProjects\pdb_to_mol2_converter\data\pdb\adfuc.pdb
   23    23     0     0     0
SMALL
GASTEIGER

@<TRIPOS>ATOM
      1 C1          1.6640   -2.0120    1.3510 C.3       1 ADF1        0.0000
      2 H1          2.0390   -2.3970    2.3280 H         1 ADF1        0.0000
      3 O1          2.1890   -2.8320    0.3390 O.3       1 ADF1        0.0000
      4 HO1         1.8380   -3.7130    0.5030 H         1 ADF1        0.0000
      5 C5          1.5760   -0.0070    0.0730 C.3       1 ADF1        0.0000
      6 H5          2.0000   -0.5420   -0.8090 H         1 ADF1        0.0000
      7 O5          2.0550   -0.6410    1.2660 O.3       1 ADF1        0.0000
      8 C2          0.1410   -2.0980    1.3510 C.3       1 ADF1        0.0000
      9 H2         -0.2130   -1.4900    2.2190 H         1 ADF1        0.0000
     10 O2         -0.3240   -3.4440    1.5500 O.3       1 ADF1        0.0000
     11 HO2        -1.0860   -3.4330    2.1400 H         1 ADF1        0.0000
     12 C3         -0.4230   -1.4820    0.0810 C.3       1 ADF1        0.0000
     13 H3         -0.0190   -2.0450   -0.7950 H         1 ADF1        0.0000
     14 O3         -1.8500   -1.5690    0.0260 O.3       1 ADF1        0.0000
     15 HO3        -2.0930   -2.4700   -0.2180 H         1 ADF1        0.0000
     16 C4          0.0500   -0.0460   -0.0330 C.3       1 ADF1        0.0000
     17 H4         -0.2390    0.3510   -1.0350 H         1 ADF1        0.0000
     18 O4         -0.5740    0.7740    0.9490 O.3       1 ADF1        0.0000
     19 HO4        -1.5180    0.5720    0.9210 H         1 ADF1        0.0000
     20 C6          2.1570    1.4190    0.0590 C.3       1 ADF1        0.0000
     21 H61         1.8460    1.9620   -0.8570 H         1 ADF1        0.0000
     22 H62         3.2660    1.3810    0.1010 H         1 ADF1        0.0000
     23 H63         1.7930    1.9790    0.9470 H         1 ADF1        0.0000
@<TRIPOS>BOND
     1   17   16 1 
     2   21   20 1 
     3    6    5 1 
     4   13   12 1 
     5   15   14 1 
     6   16    5 1 
     7   16   12 1 
     8   16   18 1 
     9   14   12 1 
    10   20    5 1 
    11   20   22 1 
    12   20   23 1 
    13    5    7 1 
    14   12    8 1 
    15    3    4 1 
    16    3    1 1 
    17   19   18 1 
    18    7    1 1 
    19    1    8 1 
    20    1    2 1 
    21    8   10 1 
    22    8    9 1 
    23   10   11 1 
