@<TRIPOS>MOLECULE
C:\Users\Praveer\PycharmProjects\pdb_to_mol2_converter\data\pdb\adg.pdb
   54    54     0     0     0
SMALL
GASTEIGER

@<TRIPOS>ATOM
      1 2C1         1.4030    0.1370    0.1720 C.3       1 ADG1        0.0000
      2 2H1         1.6970   -0.4840   -0.7080 H         1 ADG1        0.0000
      3 2O1         2.0310   -0.5390    1.2590 O.3       1 ADG1        0.0000
      4 2C5        -0.7060    1.0060    1.0090 C.3       1 ADG1        0.0000
      5 2H5        -0.4710    0.8090    2.0780 H         1 ADG1        0.0000
      6 2O5        -0.0300    0.0450    0.1700 O.3       1 ADG1        0.0000
      7 2C2         1.8690    1.5480   -0.1900 C.3       1 ADG1        0.0000
      8 2H2         1.5560    1.7110   -1.2530 H         1 ADG1        0.0000
      9 2O2         3.2920    1.6800   -0.1880 O.3       1 ADG1        0.0000
     10 2HO2        3.6760    0.9800    0.3550 H         1 ADG1        0.0000
     11 2C3         1.1880    2.6420    0.6170 C.3       1 ADG1        0.0000
     12 2H3         1.5680    2.6330    1.6620 H         1 ADG1        0.0000
     13 2O3         1.5060    3.9310    0.0980 O.3       1 ADG1        0.0000
     14 2HO3        2.4520    3.9320   -0.1190 H         1 ADG1        0.0000
     15 2C4        -0.3130    2.4330    0.6440 C.3       1 ADG1        0.0000
     16 2H4        -0.7020    2.6350   -0.3830 H         1 ADG1        0.0000
     17 2O4        -0.9330    3.3530    1.5340 O.3       1 ADG1        0.0000
     18 2HO4       -0.5920    4.2300    1.3190 H         1 ADG1        0.0000
     19 2C6        -2.1950    0.7670    0.8380 C.3       1 ADG1        0.0000
     20 2H61       -2.5000    0.9990   -0.2070 H         1 ADG1        0.0000
     21 2H62       -2.7710    1.4390    1.5130 H         1 ADG1        0.0000
     22 2O6        -2.5460   -0.5840    1.1400 O.3       1 ADG1        0.0000
     23 2HO6       -1.9800   -1.1610    0.6160 H         1 ADG1        0.0000
     24 C1          2.3160    0.2300    2.4230 C.3       1 ADG1        0.0000
     25 H11         1.4390    0.8370    2.7120 H         1 ADG1        0.0000
     26 H12         3.1670    0.9220    2.2460 H         1 ADG1        0.0000
     27 C2          2.6360   -0.6370    3.6540 C.3       1 ADG1        0.0000
     28 H21         3.6070   -1.1580    3.5100 H         1 ADG1        0.0000
     29 H22         1.8390   -1.4020    3.7880 H         1 ADG1        0.0000
     30 C3          2.6940    0.2520    4.9020 C.3       1 ADG1        0.0000
     31 H31         1.6880    0.7090    5.0500 H         1 ADG1        0.0000
     32 H32         3.4180    1.0770    4.7090 H         1 ADG1        0.0000
     33 C4          3.0960   -0.4480    6.2050 C.3       1 ADG1        0.0000
     34 H41         4.1250   -0.8600    6.1000 H         1 ADG1        0.0000
     35 H42         2.4030   -1.2930    6.4210 H         1 ADG1        0.0000
     36 C5          3.0590    0.5600    7.3650 C.3       1 ADG1        0.0000
     37 H51         2.0030    0.8480    7.5650 H         1 ADG1        0.0000
     38 H52         3.5950    1.4840    7.0500 H         1 ADG1        0.0000
     39 C6          3.7090    0.0630    8.6600 C.3       1 ADG1        0.0000
     40 H61         4.7780   -0.1680    8.4510 H         1 ADG1        0.0000
     41 H62         3.2160   -0.8760    8.9940 H         1 ADG1        0.0000
     42 C7          3.6330    1.1170    9.7760 C.3       1 ADG1        0.0000
     43 H71         2.5730    1.2410   10.0900 H         1 ADG1        0.0000
     44 H72         3.9820    2.0930    9.3680 H         1 ADG1        0.0000
     45 C8          4.4970    0.7700   10.9960 C.3       1 ADG1        0.0000
     46 H81         5.5540    0.6480   10.6660 H         1 ADG1        0.0000
     47 H82         4.1630   -0.2010   11.4240 H         1 ADG1        0.0000
     48 C9          4.4450    1.8480   12.0880 C.3       1 ADG1        0.0000
     49 H91         3.3970    1.9370   12.4550 H         1 ADG1        0.0000
     50 H92         4.7240    2.8290   11.6410 H         1 ADG1        0.0000
     51 C10         5.3710    1.5580   13.2720 C.3       1 ADG1        0.0000
     52 H101        6.4310    1.5410   12.9400 H         1 ADG1        0.0000
     53 H102        5.1310    0.5720   13.7220 H         1 ADG1        0.0000
     54 H103        5.2630    2.3380   14.0560 H         1 ADG1        0.0000
@<TRIPOS>BOND
     1    8    7 1 
     2    2    1 1 
     3   16   15 1 
     4   20   19 1 
     5    7    9 1 
     6    7    1 1 
     7    7   11 1 
     8    9   10 1 
     9   14   13 1 
    10   13   11 1 
    11    6    1 1 
    12    6    4 1 
    13    1    3 1 
    14   23   22 1 
    15   11   15 1 
    16   11   12 1 
    17   15    4 1 
    18   15   17 1 
    19   19    4 1 
    20   19   22 1 
    21   19   21 1 
    22    4    5 1 
    23    3   24 1 
    24   18   17 1 
    25   26   24 1 
    26   24   25 1 
    27   24   27 1 
    28   28   27 1 
    29   27   29 1 
    30   27   30 1 
    31   32   30 1 
    32   30   31 1 
    33   30   33 1 
    34   34   33 1 
    35   33   35 1 
    36   33   36 1 
    37   38   36 1 
    38   36   37 1 
    39   36   39 1 
    40   40   39 1 
    41   39   41 1 
    42   39   42 1 
    43   44   42 1 
    44   42   43 1 
    45   42   45 1 
    46   46   45 1 
    47   45   47 1 
    48   45   48 1 
    49   50   48 1 
    50   48   49 1 
    51   48   51 1 
    52   52   51 1 
    53   51   53 1 
    54   51   54 1 
