@<TRIPOS>MOLECULE
C:\Users\Praveer\PycharmProjects\pdb_to_mol2_converter\data\pdb\adha.pdb
   23    23     0     0     0
SMALL
GASTEIGER

@<TRIPOS>ATOM
      1 C1          2.2930    1.3560    0.0940 C.2       1 ADH1        0.0000
      2 O11         3.1000    1.5240    1.0580 O.co2     1 ADH1        0.0000
      3 O12         1.8530    2.2370   -0.6930 O.co2     1 ADH1        0.0000
      4 C2          1.5580   -0.0420    0.0520 C.3       1 ADH1        0.0000
      5 O2          1.9150   -0.7940    1.1810 O.3       1 ADH1        0.0000
      6 HO2         2.6450   -0.2370    1.4890 H         1 ADH1        0.0000
      7 C6          1.6200   -0.4510   -2.3550 C.3       1 ADH1        0.0000
      8 H6          1.9540    0.5820   -2.5840 H         1 ADH1        0.0000
      9 O6          2.1080   -0.8170   -1.0310 O.3       1 ADH1        0.0000
     10 C3          0.0290    0.0290   -0.0180 C.3       1 ADH1        0.0000
     11 H31        -0.3340    0.7450    0.7510 H         1 ADH1        0.0000
     12 H32        -0.3710   -0.9780    0.2460 H         1 ADH1        0.0000
     13 C4         -0.4990    0.3970   -1.3620 C.3       1 ADH1        0.0000
     14 H4         -0.2220    1.4490   -1.6110 H         1 ADH1        0.0000
     15 O4         -1.9160    0.3140   -1.3560 O.3       1 ADH1        0.0000
     16 HO4        -2.1360    0.2390   -2.2930 H         1 ADH1        0.0000
     17 C5          0.0890   -0.5180   -2.4120 C.3       1 ADH1        0.0000
     18 H5         -0.2070   -1.5690   -2.1750 H         1 ADH1        0.0000
     19 O5         -0.4250   -0.1920   -3.7080 O.3       1 ADH1        0.0000
     20 HO5         0.3220   -0.4300   -4.3100 H         1 ADH1        0.0000
     21 C7          2.1940   -1.3510   -3.4750 C.2       1 ADH1        0.0000
     22 O71         2.8270   -2.3890   -3.1620 O.co2     1 ADH1        0.0000
     23 O72         1.8970   -0.9410   -4.6380 O.co2     1 ADH1        0.0000
@<TRIPOS>BOND
     1   23   21 ar
     2   20   19 1 
     3   19   17 1 
     4   21   22 ar
     5   21    7 1 
     6    8    7 1 
     7   17    7 1 
     8   17   18 1 
     9   17   13 1 
    10    7    9 1 
    11   16   15 1 
    12   14   13 1 
    13   13   15 1 
    14   13   10 1 
    15    9    4 1 
    16    3    1 ar
    17   10    4 1 
    18   10   12 1 
    19   10   11 1 
    20    4    1 1 
    21    4    5 1 
    22    1    2 ar
    23    5    6 1 
