@<TRIPOS>MOLECULE
C:\Users\Praveer\PycharmProjects\pdb_to_mol2_converter\data\pdb\adhep.pdb
   28    28     0     0     0
SMALL
GASTEIGER

@<TRIPOS>ATOM
      1 C1          1.3150   -0.0050    0.0060 C.3       1 ADH1        0.0000
      2 H1          1.5940   -0.5170   -0.9450 H         1 ADH1        0.0000
      3 O1          1.8560   -0.7470    1.0630 O.3       1 ADH1        0.0000
      4 HO1         1.5730   -1.6580    0.9490 H         1 ADH1        0.0000
      5 C5         -0.6100    0.7610    1.2190 C.3       1 ADH1        0.0000
      6 H5         -0.2620    0.2420    2.1440 H         1 ADH1        0.0000
      7 O5         -0.1120    0.0610    0.0610 O.3       1 ADH1        0.0000
      8 C2          1.9340    1.3880   -0.0000 C.3       1 ADH1        0.0000
      9 H2          3.0430    1.2800    0.0950 H         1 ADH1        0.0000
     10 O2          1.6820    2.0900   -1.2270 O.3       1 ADH1        0.0000
     11 HO2         2.4450    2.0370   -1.8120 H         1 ADH1        0.0000
     12 C3          1.4440    2.1780    1.1940 C.3       1 ADH1        0.0000
     13 H3          1.8020    1.6700    2.1230 H         1 ADH1        0.0000
     14 O3          1.9820    3.5010    1.2110 O.3       1 ADH1        0.0000
     15 HO3         1.9040    3.8520    0.3140 H         1 ADH1        0.0000
     16 C4         -0.0720    2.1930    1.2270 C.3       1 ADH1        0.0000
     17 H4         -0.4460    2.7070    0.3090 H         1 ADH1        0.0000
     18 O4         -0.5360    2.9240    2.3600 O.3       1 ADH1        0.0000
     19 HO4         0.1020    3.6380    2.5060 H         1 ADH1        0.0000
     20 C6         -2.1290    0.6680    1.1730 C.3       1 ADH1        0.0000
     21 H6         -2.4950    1.2390    0.2870 H         1 ADH1        0.0000
     22 O6         -2.7020    1.2310    2.3620 O.3       1 ADH1        0.0000
     23 HO6        -2.1220    1.9860    2.5720 H         1 ADH1        0.0000
     24 C7         -2.5850   -0.7760    1.0620 C.3       1 ADH1        0.0000
     25 H71        -2.2710   -1.3490    1.9630 H         1 ADH1        0.0000
     26 H72        -2.1420   -1.2640    0.1660 H         1 ADH1        0.0000
     27 O7         -4.0090   -0.8260    0.9400 O.3       1 ADH1        0.0000
     28 HO7        -4.3140   -0.1940    1.6060 H         1 ADH1        0.0000
@<TRIPOS>BOND
     1   11   10 1 
     2   10    8 1 
     3    2    1 1 
     4    8    1 1 
     5    8    9 1 
     6    8   12 1 
     7    1    7 1 
     8    1    3 1 
     9    7    5 1 
    10   26   24 1 
    11   21   20 1 
    12   17   16 1 
    13   15   14 1 
    14   27   24 1 
    15   27   28 1 
    16    4    3 1 
    17   24   20 1 
    18   24   25 1 
    19   20    5 1 
    20   20   22 1 
    21   12   14 1 
    22   12   16 1 
    23   12   13 1 
    24    5   16 1 
    25    5    6 1 
    26   16   18 1 
    27   18   19 1 
    28   22   23 1 
