@<TRIPOS>MOLECULE
C:\Users\Praveer\PycharmProjects\pdb_to_mol2_converter\data\pdb\adig.pdb
   22    22     0     0     0
SMALL
GASTEIGER

@<TRIPOS>ATOM
      1 C1          1.4580    0.0170    0.0550 C.3       1 ADI1        0.0000
      2 H1          1.7810   -0.5010   -0.8810 H         1 ADI1        0.0000
      3 O1          1.9210   -0.7480    1.1260 O.3       1 ADI1        0.0000
      4 HO1         1.6190   -1.6470    0.9700 H         1 ADI1        0.0000
      5 C5         -0.5280    0.7760    1.1510 C.3       1 ADI1        0.0000
      6 H5         -0.2390    0.2570    2.0950 H         1 ADI1        0.0000
      7 O5          0.0350    0.0830    0.0260 O.3       1 ADI1        0.0000
      8 C2          1.9590    1.4260   -0.0050 C.3       1 ADI1        0.0000
      9 H21         1.6100    1.8860   -0.9590 H         1 ADI1        0.0000
     10 H22         3.0740    1.4260   -0.0310 H         1 ADI1        0.0000
     11 C3          1.4730    2.2590    1.1380 C.3       1 ADI1        0.0000
     12 H3          1.7950    3.3200    1.0000 H         1 ADI1        0.0000
     13 O3          2.0830    1.7830    2.3260 O.3       1 ADI1        0.0000
     14 HO3         2.1670    0.8200    2.2200 H         1 ADI1        0.0000
     15 C4         -0.0380    2.2190    1.2050 C.3       1 ADI1        0.0000
     16 H4         -0.4450    2.7430    0.3080 H         1 ADI1        0.0000
     17 O4         -0.5260    2.8900    2.3610 O.3       1 ADI1        0.0000
     18 HO4         0.1190    2.7260    3.0620 H         1 ADI1        0.0000
     19 C6         -2.0560    0.6630    1.0020 C.3       1 ADI1        0.0000
     20 H61        -2.5650    1.1610    1.8540 H         1 ADI1        0.0000
     21 H62        -2.3620   -0.4040    0.9750 H         1 ADI1        0.0000
     22 H63        -2.3850    1.1490    0.0590 H         1 ADI1        0.0000
@<TRIPOS>BOND
     1    9    8 1 
     2    2    1 1 
     3   10    8 1 
     4    8    1 1 
     5    8   11 1 
     6    7    1 1 
     7    7    5 1 
     8    1    3 1 
     9   22   19 1 
    10   16   15 1 
    11    4    3 1 
    12   21   19 1 
    13   12   11 1 
    14   19    5 1 
    15   19   20 1 
    16   11   15 1 
    17   11   13 1 
    18    5   15 1 
    19    5    6 1 
    20   15   17 1 
    21   14   13 1 
    22   17   18 1 
