@<TRIPOS>MOLECULE
C:\Users\Praveer\PycharmProjects\pdb_to_mol2_converter\data\pdb\adm.pdb
   75    76     0     0     0
SMALL
GASTEIGER

@<TRIPOS>ATOM
      1 1C1         1.7680    2.0590    1.4370 C.3       1 ADM1        0.0000
      2 1H1         0.6720    2.1160    1.6270 H         1 ADM1        0.0000
      3 1C5         3.8470    1.4200    2.4320 C.3       1 ADM1        0.0000
      4 1H5         4.0990    0.8520    1.5050 H         1 ADM1        0.0000
      5 1O5         2.4190    1.5010    2.5840 O.3       1 ADM1        0.0000
      6 1C2         2.2790    3.4690    1.2040 C.3       1 ADM1        0.0000
      7 1H2         1.9840    4.0800    2.0910 H         1 ADM1        0.0000
      8 1O2         1.6680    4.0730    0.0560 O.3       1 ADM1        0.0000
      9 1HO2        1.7380    3.4660   -0.6900 H         1 ADM1        0.0000
     10 1C3         3.7920    3.5040    1.1050 C.3       1 ADM1        0.0000
     11 1H3         4.0960    2.9360    0.1910 H         1 ADM1        0.0000
     12 1O3         4.2720    4.8390    0.9630 O.3       1 ADM1        0.0000
     13 1HO3        3.6640    5.3070    0.3710 H         1 ADM1        0.0000
     14 1C4         4.4120    2.8230    2.3080 C.3       1 ADM1        0.0000
     15 1H4         4.1490    3.3990    3.2280 H         1 ADM1        0.0000
     16 1O4         5.8280    2.7820    2.1990 O.3       1 ADM1        0.0000
     17 1HO4        6.1190    3.6690    1.9550 H         1 ADM1        0.0000
     18 1C6         4.3930    0.6300    3.6020 C.3       1 ADM1        0.0000
     19 1H61        4.1920    1.1660    4.5570 H         1 ADM1        0.0000
     20 1H62        5.4960    0.5140    3.4980 H         1 ADM1        0.0000
     21 1O6         3.8060   -0.6700    3.6570 O.3       1 ADM1        0.0000
     22 1HO6        2.8490   -0.5660    3.7420 H         1 ADM1        0.0000
     23 2C1         0.1910   -1.8370   -1.5790 C.3       1 ADM1        0.0000
     24 2H1        -0.0500   -2.9090   -1.7750 H         1 ADM1        0.0000
     25 2O1        -0.3240   -1.1520   -2.7150 O.3       1 ADM1        0.0000
     26 2C5         2.1670   -0.5680   -1.0950 C.3       1 ADM1        0.0000
     27 2H5         1.9470    0.1660   -1.9020 H         1 ADM1        0.0000
     28 2O5         1.6200   -1.8360   -1.4790 O.3       1 ADM1        0.0000
     29 2C2        -0.3950   -1.5380   -0.2030 C.3       1 ADM1        0.0000
     30 2H2        -0.0310   -2.3740    0.4500 H         1 ADM1        0.0000
     31 2O2        -1.8230   -1.6100   -0.1840 O.3       1 ADM1        0.0000
     32 2HO2       -2.1740   -1.4520   -1.0680 H         1 ADM1        0.0000
     33 2C3         0.1210   -0.2570    0.4340 C.3       1 ADM1        0.0000
     34 2H3        -0.4120    0.6130   -0.0050 H         1 ADM1        0.0000
     35 2O3        -0.2190   -0.2410    1.8170 O.3       1 ADM1        0.0000
     36 2HO3       -1.1310   -0.5440    1.8990 H         1 ADM1        0.0000
     37 2C4         1.6170   -0.0540    0.2370 C.3       1 ADM1        0.0000
     38 2H4         2.1510   -0.6150    1.0430 H         1 ADM1        0.0000
     39 2O4         2.0190    1.3240    0.2620 O.3       1 ADM1        0.0000
     40 2C6         3.6760   -0.7200   -1.0580 C.3       1 ADM1        0.0000
     41 2H61        3.9670   -1.4950   -0.3140 H         1 ADM1        0.0000
     42 2H62        4.1470    0.2410   -0.7510 H         1 ADM1        0.0000
     43 2O6         4.1950   -1.0750   -2.3400 O.3       1 ADM1        0.0000
     44 2HO6        3.7680   -1.8910   -2.6280 H         1 ADM1        0.0000
     45 C1         -0.7360    0.2000   -2.5310 C.3       1 ADM1        0.0000
     46 H11         0.0410    0.7840   -2.0000 H         1 ADM1        0.0000
     47 H12        -1.6740    0.2510   -1.9370 H         1 ADM1        0.0000
     48 C2         -0.9620    0.9440   -3.8540 C.3       1 ADM1        0.0000
     49 H21        -1.8720    0.5460   -4.3520 H         1 ADM1        0.0000
     50 H22        -0.0990    0.7640   -4.5330 H         1 ADM1        0.0000
     51 C3         -1.0980    2.4510   -3.5890 C.3       1 ADM1        0.0000
     52 H31        -0.1400    2.8220   -3.1570 H         1 ADM1        0.0000
     53 H32        -1.8980    2.6130   -2.8290 H         1 ADM1        0.0000
     54 C4         -1.4320    3.2990   -4.8210 C.3       1 ADM1        0.0000
     55 H41        -2.4230    2.9860   -5.2210 H         1 ADM1        0.0000
     56 H42        -0.6720    3.1320   -5.6160 H         1 ADM1        0.0000
     57 C5         -1.4770    4.7910   -4.4550 C.3       1 ADM1        0.0000
     58 H51        -0.4470    5.1460   -4.2320 H         1 ADM1        0.0000
     59 H52        -2.0750    4.9090   -3.5220 H         1 ADM1        0.0000
     60 C6         -2.1070    5.6870   -5.5300 C.3       1 ADM1        0.0000
     61 H61        -3.1560    5.3540   -5.7010 H         1 ADM1        0.0000
     62 H62        -1.5550    5.5780   -6.4900 H         1 ADM1        0.0000
     63 C7         -2.1140    7.1630   -5.1080 C.3       1 ADM1        0.0000
     64 H71        -1.0690    7.5440   -5.0820 H         1 ADM1        0.0000
     65 H72        -2.5260    7.2390   -4.0750 H         1 ADM1        0.0000
     66 C8         -2.9600    8.0550   -6.0270 C.3       1 ADM1        0.0000
     67 H81        -4.0050    7.6700   -6.0420 H         1 ADM1        0.0000
     68 H82        -2.5650    8.0030   -7.0650 H         1 ADM1        0.0000
     69 C9         -2.9750    9.5170   -5.5590 C.3       1 ADM1        0.0000
     70 H91        -1.9330    9.9110   -5.5840 H         1 ADM1        0.0000
     71 H92        -3.3140    9.5470   -4.4980 H         1 ADM1        0.0000
     72 C10        -3.8800   10.4220   -6.3990 C.3       1 ADM1        0.0000
     73 H101       -4.9360   10.0800   -6.3370 H         1 ADM1        0.0000
     74 H102       -3.5700   10.4080   -7.4660 H         1 ADM1        0.0000
     75 H103       -3.8270   11.4700   -6.0320 H         1 ADM1        0.0000
@<TRIPOS>BOND
     1   74   72 1 
     2   68   66 1 
     3   62   60 1 
     4   72   73 1 
     5   72   75 1 
     6   72   69 1 
     7   67   66 1 
     8   66   69 1 
     9   66   63 1 
    10   61   60 1 
    11   56   54 1 
    12   70   69 1 
    13   69   71 1 
    14   60   63 1 
    15   60   57 1 
    16   55   54 1 
    17   63   64 1 
    18   63   65 1 
    19   54   57 1 
    20   54   51 1 
    21   50   48 1 
    22   57   58 1 
    23   57   59 1 
    24   49   48 1 
    25   48   51 1 
    26   48   45 1 
    27   51   52 1 
    28   51   53 1 
    29   25   45 1 
    30   25   23 1 
    31   44   43 1 
    32   45   46 1 
    33   45   47 1 
    34   43   40 1 
    35   27   26 1 
    36   24   23 1 
    37   23   28 1 
    38   23   29 1 
    39   28   26 1 
    40   26   40 1 
    41   26   37 1 
    42   32   31 1 
    43   40   42 1 
    44   40   41 1 
    45    9    8 1 
    46   29   31 1 
    47   29   33 1 
    48   29   30 1 
    49   34   33 1 
    50    8    6 1 
    51   11   10 1 
    52   37   39 1 
    53   37   33 1 
    54   37   38 1 
    55   39    1 1 
    56   13   12 1 
    57   33   35 1 
    58   12   10 1 
    59   10    6 1 
    60   10   14 1 
    61    6    1 1 
    62    6    7 1 
    63    1    2 1 
    64    1    5 1 
    65    4    3 1 
    66   35   36 1 
    67   17   16 1 
    68   16   14 1 
    69   14    3 1 
    70   14   15 1 
    71    3    5 1 
    72    3   18 1 
    73   20   18 1 
    74   18   21 1 
    75   18   19 1 
    76   21   22 1 
