@<TRIPOS>MOLECULE
C:\Users\Praveer\PycharmProjects\pdb_to_mol2_converter\data\pdb\adp.pdb
   39    41     0     0     0
SMALL
GASTEIGER

@<TRIPOS>ATOM
      1 C4'        -0.4280   -0.5340    1.4380 C.3       1 ADP1        0.0000
      2 H4'        -1.5230   -0.6410    1.2610 H         1 ADP1        0.0000
      3 O4'         0.1010   -1.8430    1.5720 O.3       1 ADP1        0.0000
      4 C1'         0.2550   -2.0810    2.9700 C.3       1 ADP1        0.0000
      5 H1'        -0.1720   -3.0680    3.2510 H         1 ADP1        0.0000
      6 C5          3.5650   -2.2440    4.4510 C.ar      1 ADP1        0.0000
      7 N7          3.9350   -2.0140    3.1770 N.ar      1 ADP1        0.0000
      8 C8          2.7570   -1.9290    2.5020 C.ar      1 ADP1        0.0000
      9 H8          2.6920   -1.7580    1.4370 H         1 ADP1        0.0000
     10 N9          1.6850   -2.0930    3.3230 N.ar      1 ADP1        0.0000
     11 N1          3.6960   -2.6530    6.7700 N.2       1 ADP1        0.0000
     12 C2          2.3240   -2.7030    6.8320 C.2       1 ADP1        0.0000
     13 H2          1.8360   -2.8850    7.7790 H         1 ADP1        0.0000
     14 N3          1.5710   -2.5230    5.7030 N.pl3     1 ADP1        0.0000
     15 C4          2.2190   -2.2940    4.5360 C.ar      1 ADP1        0.0000
     16 C6          4.3430   -2.4250    5.5860 C.3       1 ADP1        0.0000
     17 N6          5.7550   -2.3800    5.5350 N.3       1 ADP1        0.0000
     18 H61         6.3080   -2.5190    6.3930 H         1 ADP1        0.0000
     19 H62         6.2440   -2.2090    4.6440 H         1 ADP1        0.0000
     20 C2'        -0.4910   -0.9570    3.7120 C.3       1 ADP1        0.0000
     21 H2''       -0.1660   -0.7630    4.7590 H         1 ADP1        0.0000
     22 O2'        -1.8750   -1.2140    3.7070 O.3       1 ADP1        0.0000
     23 H2'        -2.0300   -1.9410    4.3660 H         1 ADP1        0.0000
     24 C3'        -0.1800    0.1720    2.7720 C.3       1 ADP1        0.0000
     25 H3'         0.9000    0.4280    2.8710 H         1 ADP1        0.0000
     26 O3'        -0.9440    1.3340    2.9800 O.3       1 ADP1        0.0000
     27 H3T        -1.8850    1.1370    2.7320 H         1 ADP1        0.0000
     28 C5'         0.1740    0.2180    0.2480 C.3       1 ADP1        0.0000
     29 H5'        -0.0570   -0.3300   -0.6900 H         1 ADP1        0.0000
     30 H5''       -0.3430    1.2030    0.1950 H         1 ADP1        0.0000
     31 O5'         1.5770    0.3020    0.3810 O.3       1 ADP1        0.0000
     32 PA          2.1110    1.9370    0.0660 P.3       1 ADP1        0.0000
     33 O1A         3.6110    1.8250   -0.3160 O.2       1 ADP1        0.0000
     34 O2A         2.0540    2.9020    1.5110 O.3       1 ADP1        0.0000
     35 O3A         1.3100    2.6370   -1.3210 O.3       1 ADP1        0.0000
     36 PB          0.5770    4.1270   -0.7960 P.3       1 ADP1        0.0000
     37 O1B         1.7600    5.3200   -0.3550 O.3       1 ADP1        0.0000
     38 O2B        -0.6070    3.8860    0.4510 O.3       1 ADP1        0.0000
     39 O3B        -0.1860    4.6970   -2.0200 O.2       1 ADP1        0.0000
@<TRIPOS>BOND
     1   39   36 2 
     2   35   36 1 
     3   35   32 1 
     4   36   37 1 
     5   36   38 1 
     6   29   28 1 
     7   33   32 2 
     8   32   31 1 
     9   32   34 1 
    10   30   28 1 
    11   28   31 1 
    12   28    1 1 
    13    2    1 1 
    14    9    8 1 
    15    1    3 1 
    16    1   24 1 
    17    3    4 1 
    18    8    7 ar
    19    8   10 ar
    20   27   26 1 
    21   24   25 1 
    22   24   26 1 
    23   24   20 1 
    24    4    5 1 
    25    4   10 1 
    26    4   20 1 
    27    7    6 ar
    28   10   15 ar
    29   22   20 1 
    30   22   23 1 
    31   20   21 1 
    32    6   15 ar
    33    6   16 1 
    34   15   14 1 
    35   19   17 1 
    36   17   16 1 
    37   17   18 1 
    38   16   11 1 
    39   14   12 1 
    40   11   12 2 
    41   12   13 1 
