@<TRIPOS>MOLECULE
C:\Users\Praveer\PycharmProjects\pdb_to_mol2_converter\data\pdb\adpsi.pdb
   24    24     0     0     0
SMALL
GASTEIGER

@<TRIPOS>ATOM
      1 O5          1.4210    0.0140   -0.0550 O.3       1 ADP1        0.0000
      2 C2          1.9550    1.3440   -0.0030 C.3       1 ADP1        0.0000
      3 O2          2.6200    1.4040    1.2230 O.3       1 ADP1        0.0000
      4 HO2         1.9900    1.8620    1.7940 H         1 ADP1        0.0000
      5 C5         -0.0100    0.0600    0.0070 C.3       1 ADP1        0.0000
      6 H5         -0.2890    0.1110    1.0860 H         1 ADP1        0.0000
      7 C6         -0.5920   -1.1810   -0.6220 C.3       1 ADP1        0.0000
      8 H61        -0.2710   -1.2600   -1.6850 H         1 ADP1        0.0000
      9 H62        -1.7040   -1.1340   -0.5980 H         1 ADP1        0.0000
     10 O6         -0.1730   -2.3520    0.0760 O.3       1 ADP1        0.0000
     11 HO6         0.7870   -2.3230    0.1800 H         1 ADP1        0.0000
     12 C1          2.9250    1.4050   -1.1690 C.3       1 ADP1        0.0000
     13 H11         2.4120    1.0350   -2.0850 H         1 ADP1        0.0000
     14 H12         3.7900    0.7290   -0.9750 H         1 ADP1        0.0000
     15 O1          3.4020    2.7290   -1.4450 O.3       1 ADP1        0.0000
     16 HO1         3.9580    3.0280   -0.7140 H         1 ADP1        0.0000
     17 C3          0.7150    2.3010   -0.1040 C.3       1 ADP1        0.0000
     18 H3          0.9200    3.1650   -0.7650 H         1 ADP1        0.0000
     19 O3          0.2650    2.7850    1.1560 O.3       1 ADP1        0.0000
     20 HO3        -0.7030    2.7220    1.1450 H         1 ADP1        0.0000
     21 C4         -0.3440    1.3580   -0.7120 C.3       1 ADP1        0.0000
     22 H4         -0.1910    1.2480   -1.8080 H         1 ADP1        0.0000
     23 O4         -1.6830    1.7130   -0.4270 O.3       1 ADP1        0.0000
     24 HO4        -2.1190    2.0630   -1.2120 H         1 ADP1        0.0000
@<TRIPOS>BOND
     1   13   12 1 
     2   22   21 1 
     3    8    7 1 
     4   15   12 1 
     5   15   16 1 
     6   24   23 1 
     7   12   14 1 
     8   12    2 1 
     9   18   17 1 
    10   21   23 1 
    11   21   17 1 
    12   21    5 1 
    13    7    9 1 
    14    7    5 1 
    15    7   10 1 
    16   17    2 1 
    17   17   19 1 
    18    1    2 1 
    19    1    5 1 
    20    2    3 1 
    21    5    6 1 
    22   10   11 1 
    23   20   19 1 
    24    3    4 1 
