@<TRIPOS>MOLECULE
C:\Users\Praveer\PycharmProjects\pdb_to_mol2_converter\data\pdb\adr.pdb
   59    58     0     0     0
SMALL
GASTEIGER

@<TRIPOS>ATOM
      1 O1          0.0390    0.0730   -0.3080 O.co2     1 ADR1        0.0000
      2 O2          1.9900   -0.9870   -0.1740 O.co2     1 ADR1        0.0000
      3 C1          1.2910    0.0590   -0.1780 C.2       1 ADR1        0.0000
      4 C2          2.0370    1.3840   -0.0110 C.3       1 ADR1        0.0000
      5 H2R         2.7830    1.4440   -0.8280 H         1 ADR1        0.0000
      6 H2S         2.5720    1.3360    0.9590 H         1 ADR1        0.0000
      7 C3          1.1100    2.6210   -0.0460 C.3       1 ADR1        0.0000
      8 H3R         0.3440    2.5180    0.7550 H         1 ADR1        0.0000
      9 H3S         0.5690    2.6350   -1.0200 H         1 ADR1        0.0000
     10 C4          1.8740    3.9390    0.1410 C.3       1 ADR1        0.0000
     11 H4R         2.6570    4.0160   -0.6450 H         1 ADR1        0.0000
     12 H4S         2.3850    3.9140    1.1290 H         1 ADR1        0.0000
     13 C5          0.9560    5.1690    0.0700 C.3       1 ADR1        0.0000
     14 H5R         0.1450    5.0350    0.8220 H         1 ADR1        0.0000
     15 H5S         0.4830    5.1970   -0.9380 H         1 ADR1        0.0000
     16 C6          1.7010    6.4920    0.3360 C.3       1 ADR1        0.0000
     17 H6R         2.5190    6.5850   -0.4110 H         1 ADR1        0.0000
     18 H6S         2.1810    6.4200    1.3380 H         1 ADR1        0.0000
     19 C7          0.7560    7.6700    0.3040 C.2       1 ADR1        0.0000
     20 H7R        -0.2060    7.4850    0.8060 H         1 ADR1        0.0000
     21 C8          0.9580    8.8750   -0.2670 C.2       1 ADR1        0.0000
     22 H8R         0.1480    9.6180   -0.2080 H         1 ADR1        0.0000
     23 C9          2.1910    9.3540   -0.9990 C.3       1 ADR1        0.0000
     24 H9R         1.8870    9.7090   -2.0090 H         1 ADR1        0.0000
     25 H9S         2.9010    8.5180   -1.1780 H         1 ADR1        0.0000
     26 C10         2.8920   10.4810   -0.2750 C.2       1 ADR1        0.0000
     27 H10R        2.3020   10.9980    0.4990 H         1 ADR1        0.0000
     28 C11         4.1600   10.8850   -0.4880 C.2       1 ADR1        0.0000
     29 H11R        4.5600   11.7110    0.1220 H         1 ADR1        0.0000
     30 C12         5.1280   10.3080   -1.4940 C.3       1 ADR1        0.0000
     31 H12R        4.6310    9.5560   -2.1450 H         1 ADR1        0.0000
     32 H12S        5.9200    9.7550   -0.9420 H         1 ADR1        0.0000
     33 C13         5.7270   11.3790   -2.3740 C.2       1 ADR1        0.0000
     34 H13R        4.9980   12.0620   -2.8400 H         1 ADR1        0.0000
     35 C14         7.0360   11.5590   -2.6360 C.2       1 ADR1        0.0000
     36 H14R        7.3280   12.3860   -3.3030 H         1 ADR1        0.0000
     37 C15         8.1650   10.7050   -2.1050 C.3       1 ADR1        0.0000
     38 H15R        7.8500    9.6390   -2.0840 H         1 ADR1        0.0000
     39 H15S        8.3600   10.9820   -1.0450 H         1 ADR1        0.0000
     40 C16         9.4400   10.8870   -2.8960 C.2       1 ADR1        0.0000
     41 H16R        9.8490   11.9100   -2.8730 H         1 ADR1        0.0000
     42 C17        10.1010    9.9550   -3.6100 C.2       1 ADR1        0.0000
     43 H17R       11.0170   10.2540   -4.1420 H         1 ADR1        0.0000
     44 C18         9.7420    8.4960   -3.7620 C.3       1 ADR1        0.0000
     45 H18R        9.2350    8.3290   -4.7380 H         1 ADR1        0.0000
     46 H18S        9.0440    8.1630   -2.9660 H         1 ADR1        0.0000
     47 C19        10.9930    7.5960   -3.7050 C.3       1 ADR1        0.0000
     48 H19R       11.4750    7.6970   -2.7070 H         1 ADR1        0.0000
     49 H19S       11.7250    7.9420   -4.4710 H         1 ADR1        0.0000
     50 C20        10.7150    6.1040   -3.9730 C.3       1 ADR1        0.0000
     51 H20R       11.7050    5.5890   -3.9940 H         1 ADR1        0.0000
     52 H20S       10.2540    5.9730   -4.9760 H         1 ADR1        0.0000
     53 C21         9.8490    5.4060   -2.9090 C.3       1 ADR1        0.0000
     54 H21R       10.0020    5.9020   -1.9250 H         1 ADR1        0.0000
     55 H21S       10.2140    4.3570   -2.8070 H         1 ADR1        0.0000
     56 C22         8.3540    5.3440   -3.2440 C.3       1 ADR1        0.0000
     57 H22R        8.1980    4.8610   -4.2320 H         1 ADR1        0.0000
     58 H22S        7.9110    6.3610   -3.2810 H         1 ADR1        0.0000
     59 H22T        7.8080    4.7570   -2.4760 H         1 ADR1        0.0000
@<TRIPOS>BOND
     1   52   50 1 
     2   45   44 1 
     3   49   47 1 
     4   57   56 1 
     5   43   42 1 
     6   51   50 1 
     7   50   47 1 
     8   50   53 1 
     9   44   47 1 
    10   44   42 1 
    11   44   46 1 
    12   47   48 1 
    13   42   40 2 
    14   36   35 1 
    15   58   56 1 
    16   56   53 1 
    17   56   59 1 
    18   53   55 1 
    19   53   54 1 
    20   40   41 1 
    21   40   37 1 
    22   34   33 1 
    23   35   33 2 
    24   35   37 1 
    25   33   30 1 
    26   31   30 1 
    27   37   38 1 
    28   37   39 1 
    29   24   23 1 
    30   30   32 1 
    31   30   28 1 
    32   25   23 1 
    33    9    7 1 
    34   23   26 1 
    35   23   21 1 
    36   15   13 1 
    37    5    4 1 
    38   11   10 1 
    39   28   26 2 
    40   28   29 1 
    41   17   16 1 
    42    1    3 ar
    43   26   27 1 
    44   21   22 1 
    45   21   19 2 
    46    3    2 ar
    47    3    4 1 
    48    7    4 1 
    49    7   10 1 
    50    7    8 1 
    51    4    6 1 
    52   13   10 1 
    53   13   16 1 
    54   13   14 1 
    55   10   12 1 
    56   19   16 1 
    57   19   20 1 
    58   16   18 1 
