@<TRIPOS>MOLECULE
C:\Users\Praveer\PycharmProjects\pdb_to_mol2_converter\data\pdb\adrhm.pdb
   23    23     0     0     0
SMALL
GASTEIGER

@<TRIPOS>ATOM
      1 C1          1.5930   -1.9850    1.3850 C.3       1 ADR1        0.0000
      2 H1          1.9760   -2.3280    2.3770 H         1 ADR1        0.0000
      3 O1          2.0720   -2.8680    0.4090 O.3       1 ADR1        0.0000
      4 HO1         3.0260   -2.8940    0.5080 H         1 ADR1        0.0000
      5 C5          1.5490   -0.0490   -0.0230 C.3       1 ADR1        0.0000
      6 H5          1.9230   -0.6120   -0.9110 H         1 ADR1        0.0000
      7 O5          2.0600   -0.6490    1.1770 O.3       1 ADR1        0.0000
      8 C2          0.0740   -2.0490    1.4220 C.3       1 ADR1        0.0000
      9 H2         -0.2320   -3.1220    1.4800 H         1 ADR1        0.0000
     10 O2         -0.4640   -1.4050    2.5800 O.3       1 ADR1        0.0000
     11 HO2        -1.4150   -1.3190    2.4420 H         1 ADR1        0.0000
     12 C3         -0.4970   -1.4600    0.1480 C.3       1 ADR1        0.0000
     13 H3         -0.1340   -2.0790   -0.7100 H         1 ADR1        0.0000
     14 O3         -1.9260   -1.5040    0.1460 O.3       1 ADR1        0.0000
     15 HO3        -2.2280   -1.7360   -0.7380 H         1 ADR1        0.0000
     16 C4          0.0250   -0.0520   -0.0450 C.3       1 ADR1        0.0000
     17 H4         -0.3220    0.5800    0.8070 H         1 ADR1        0.0000
     18 O4         -0.4590    0.5240   -1.2570 O.3       1 ADR1        0.0000
     19 HO4        -1.3420    0.8760   -1.0970 H         1 ADR1        0.0000
     20 C6          2.1500    1.3680   -0.0650 C.3       1 ADR1        0.0000
     21 H61         1.8070    1.9100   -0.9720 H         1 ADR1        0.0000
     22 H62         3.2580    1.3150   -0.0780 H         1 ADR1        0.0000
     23 H63         1.8350    1.9400    0.8330 H         1 ADR1        0.0000
@<TRIPOS>BOND
     1   18   19 1 
     2   18   16 1 
     3   21   20 1 
     4    6    5 1 
     5   15   14 1 
     6   13   12 1 
     7   22   20 1 
     8   20    5 1 
     9   20   23 1 
    10   16    5 1 
    11   16   12 1 
    12   16   17 1 
    13    5    7 1 
    14   14   12 1 
    15   12    8 1 
    16    3    4 1 
    17    3    1 1 
    18    7    1 1 
    19    1    8 1 
    20    1    2 1 
    21    8    9 1 
    22    8   10 1 
    23   11   10 1 
