@<TRIPOS>MOLECULE
C:\Users\Praveer\PycharmProjects\pdb_to_mol2_converter\data\pdb\adrp.pdb
   60    59     0     0     0
SMALL
GASTEIGER

@<TRIPOS>ATOM
      1 H1          0.0280    0.0510    0.2120 H         1 ADR1        0.0000
      2 O1          0.9810    0.0310    0.1560 O.3       1 ADR1        0.0000
      3 O2          0.6010    2.2400    0.0870 O.2       1 ADR1        0.0000
      4 C1          1.4160    1.3380    0.0750 C.2       1 ADR1        0.0000
      5 C2          2.9360    1.5130   -0.0300 C.3       1 ADR1        0.0000
      6 H2R         3.2380    2.2360    0.7550 H         1 ADR1        0.0000
      7 H2S         3.1470    1.9700   -1.0200 H         1 ADR1        0.0000
      8 C3          3.7570    0.2100    0.1220 C.3       1 ADR1        0.0000
      9 H3R         3.4450   -0.5240   -0.6560 H         1 ADR1        0.0000
     10 H3S         3.5580   -0.2460    1.1180 H         1 ADR1        0.0000
     11 C4          5.2660    0.4560   -0.0190 C.3       1 ADR1        0.0000
     12 H4R         5.5940    1.1960    0.7450 H         1 ADR1        0.0000
     13 H4S         5.4700    0.8920   -1.0220 H         1 ADR1        0.0000
     14 C5          6.0920   -0.8290    0.1410 C.3       1 ADR1        0.0000
     15 H5R         5.7130   -1.5840   -0.5850 H         1 ADR1        0.0000
     16 H5S         5.9350   -1.2330    1.1660 H         1 ADR1        0.0000
     17 C6          7.5950   -0.5910   -0.1020 C.3       1 ADR1        0.0000
     18 H6R         7.9390    0.1890    0.6130 H         1 ADR1        0.0000
     19 H6S         7.7170   -0.1740   -1.1270 H         1 ADR1        0.0000
     20 C7          8.3960   -1.8640    0.0280 C.2       1 ADR1        0.0000
     21 H7R         7.8730   -2.7680   -0.3220 H         1 ADR1        0.0000
     22 C8          9.6410   -1.9900    0.5250 C.2       1 ADR1        0.0000
     23 H8R        10.0860   -2.9980    0.5640 H         1 ADR1        0.0000
     24 C9         10.5360   -0.8870    1.0440 C.3       1 ADR1        0.0000
     25 H9R        10.7280   -1.0650    2.1250 H         1 ADR1        0.0000
     26 H9S        10.0340    0.1040    0.9870 H         1 ADR1        0.0000
     27 C10        11.8590   -0.8290    0.3150 C.2       1 ADR1        0.0000
     28 H10R       12.0970   -1.6920   -0.3280 H         1 ADR1        0.0000
     29 C11        12.7440    0.1840    0.3770 C.2       1 ADR1        0.0000
     30 H11R       13.6690    0.1120   -0.2170 H         1 ADR1        0.0000
     31 C12        12.6030    1.4460    1.1960 C.3       1 ADR1        0.0000
     32 H12R       11.7940    1.3400    1.9530 H         1 ADR1        0.0000
     33 H12S       12.2860    2.2740    0.5230 H         1 ADR1        0.0000
     34 C13        13.8910    1.7910    1.9060 C.2       1 ADR1        0.0000
     35 H13R       14.3760    0.9510    2.4280 H         1 ADR1        0.0000
     36 C14        14.4790    3.0020    1.9530 C.2       1 ADR1        0.0000
     37 H14R       15.4240    3.1030    2.5120 H         1 ADR1        0.0000
     38 C15        13.9480    4.2650    1.3160 C.3       1 ADR1        0.0000
     39 H15R       12.8430    4.3110    1.4360 H         1 ADR1        0.0000
     40 H15S       14.1300    4.2220    0.2200 H         1 ADR1        0.0000
     41 C16        14.6140    5.5070    1.8680 C.2       1 ADR1        0.0000
     42 H16R       15.7120    5.5150    1.7810 H         1 ADR1        0.0000
     43 C17        14.0120    6.5610    2.4490 C.2       1 ADR1        0.0000
     44 H17R       14.6370    7.3920    2.8120 H         1 ADR1        0.0000
     45 C18        12.5300    6.7590    2.6500 C.3       1 ADR1        0.0000
     46 H18R       12.2330    6.4020    3.6620 H         1 ADR1        0.0000
     47 H18S       11.9420    6.1790    1.9070 H         1 ADR1        0.0000
     48 C19        12.1280    8.2410    2.5250 C.3       1 ADR1        0.0000
     49 H19R       12.3370    8.5980    1.4910 H         1 ADR1        0.0000
     50 H19S       12.7520    8.8460    3.2240 H         1 ADR1        0.0000
     51 C20        10.6510    8.5240    2.8640 C.3       1 ADR1        0.0000
     52 H20R       10.5220    9.6310    2.8630 H         1 ADR1        0.0000
     53 H20S       10.4210    8.1700    3.8920 H         1 ADR1        0.0000
     54 C21         9.6350    7.9320    1.8710 C.3       1 ADR1        0.0000
     55 H21R       10.1050    7.8600    0.8650 H         1 ADR1        0.0000
     56 H21S        8.7830    8.6480    1.7820 H         1 ADR1        0.0000
     57 C22         9.0570    6.5720    2.2820 C.3       1 ADR1        0.0000
     58 H22R        8.5700    6.6410    3.2790 H         1 ADR1        0.0000
     59 H22S        9.8540    5.8020    2.3370 H         1 ADR1        0.0000
     60 H22T        8.3000    6.2330    1.5440 H         1 ADR1        0.0000
@<TRIPOS>BOND
     1   19   17 1 
     2   13   11 1 
     3    7    5 1 
     4    9    8 1 
     5   15   14 1 
     6   28   27 1 
     7   21   20 1 
     8   30   29 1 
     9   17   20 1 
    10   17   14 1 
    11   17   18 1 
    12    5    4 1 
    13    5    8 1 
    14    5    6 1 
    15   11    8 1 
    16   11   14 1 
    17   11   12 1 
    18   20   22 2 
    19    4    3 2 
    20    4    2 1 
    21    8   10 1 
    22   14   16 1 
    23    2    1 1 
    24   40   38 1 
    25   27   29 2 
    26   27   24 1 
    27   29   31 1 
    28   33   31 1 
    29   22   23 1 
    30   22   24 1 
    31   55   54 1 
    32   26   24 1 
    33   24   25 1 
    34   31   34 1 
    35   31   32 1 
    36   38   39 1 
    37   38   41 1 
    38   38   36 1 
    39   49   48 1 
    40   60   57 1 
    41   42   41 1 
    42   56   54 1 
    43   41   43 2 
    44   54   57 1 
    45   54   51 1 
    46   34   36 2 
    47   34   35 1 
    48   47   45 1 
    49   36   37 1 
    50   57   59 1 
    51   57   58 1 
    52   43   45 1 
    53   43   44 1 
    54   48   45 1 
    55   48   51 1 
    56   48   50 1 
    57   45   46 1 
    58   52   51 1 
    59   51   53 1 
