@<TRIPOS>MOLECULE
C:\Users\Praveer\PycharmProjects\pdb_to_mol2_converter\data\pdb\afrup.pdb
   24    24     0     0     0
SMALL
GASTEIGER

@<TRIPOS>ATOM
      1 C2          1.4370   -0.0580    0.0610 C.3       1 AFR1        0.0000
      2 O2          1.8020   -0.7610    1.2230 O.3       1 AFR1        0.0000
      3 HO2         1.7260   -1.6840    0.9400 H         1 AFR1        0.0000
      4 C6         -0.4560    0.9810    1.1050 C.3       1 AFR1        0.0000
      5 H61        -0.2850    0.4760    2.0820 H         1 AFR1        0.0000
      6 H62        -1.5560    1.1110    0.9920 H         1 AFR1        0.0000
      7 O6          0.0170    0.1500    0.0320 O.3       1 AFR1        0.0000
      8 C3          2.1890    1.2800    0.0180 C.3       1 AFR1        0.0000
      9 H3          3.2750    1.0630    0.1650 H         1 AFR1        0.0000
     10 O3          2.0680    1.9350   -1.2500 O.3       1 AFR1        0.0000
     11 HO3         2.8540    2.4590   -1.4420 H         1 AFR1        0.0000
     12 C4          1.7180    2.2010    1.1210 C.3       1 AFR1        0.0000
     13 H4          2.1590    3.2160    0.9630 H         1 AFR1        0.0000
     14 O4          2.1940    1.7520    2.3890 O.3       1 AFR1        0.0000
     15 HO4         2.1000    0.7840    2.4060 H         1 AFR1        0.0000
     16 C5          0.2090    2.3410    1.0830 C.3       1 AFR1        0.0000
     17 H5         -0.0780    2.8470    0.1290 H         1 AFR1        0.0000
     18 O5         -0.2770    3.1340    2.1560 O.3       1 AFR1        0.0000
     19 HO5         0.2850    2.9490    2.9200 H         1 AFR1        0.0000
     20 C1          1.7040   -0.9220   -1.1850 C.3       1 AFR1        0.0000
     21 H1A         2.7360   -0.6860   -1.5320 H         1 AFR1        0.0000
     22 H1B         1.0170   -0.6250   -2.0090 H         1 AFR1        0.0000
     23 O1          1.6660   -2.3500   -0.9860 O.3       1 AFR1        0.0000
     24 HO1         0.7910   -2.6870   -1.2200 H         1 AFR1        0.0000
@<TRIPOS>BOND
     1   22   20 1 
     2   21   20 1 
     3   11   10 1 
     4   10    8 1 
     5   24   23 1 
     6   20   23 1 
     7   20    1 1 
     8    8    1 1 
     9    8    9 1 
    10    8   12 1 
    11    7    1 1 
    12    7    4 1 
    13    1    2 1 
    14   17   16 1 
    15    3    2 1 
    16   13   12 1 
    17    6    4 1 
    18   16    4 1 
    19   16   12 1 
    20   16   18 1 
    21    4    5 1 
    22   12   14 1 
    23   18   19 1 
    24   14   15 1 
