@<TRIPOS>MOLECULE
C:\Users\Praveer\PycharmProjects\pdb_to_mol2_converter\data\pdb\afru.pdb
   24    24     0     0     0
SMALL
GASTEIGER

@<TRIPOS>ATOM
      1 O5          1.4230   -0.0110   -0.2680 O.3       1 AFR1        0.0000
      2 C2          1.9540    1.3080   -0.1020 C.3       1 AFR1        0.0000
      3 O2          2.5130    1.3840    1.1760 O.3       1 AFR1        0.0000
      4 HO2         3.3830    1.7740    1.0370 H         1 AFR1        0.0000
      5 C5          0.0100    0.0250   -0.0170 C.3       1 AFR1        0.0000
      6 H5         -0.1310    0.0850    1.0880 H         1 AFR1        0.0000
      7 C6         -0.6570   -1.2180   -0.5580 C.3       1 AFR1        0.0000
      8 H61        -0.4910   -1.3010   -1.6550 H         1 AFR1        0.0000
      9 H62        -1.7550   -1.1630   -0.3810 H         1 AFR1        0.0000
     10 O6         -0.1550   -2.3950    0.0740 O.3       1 AFR1        0.0000
     11 HO6         0.8080   -2.4030    0.0050 H         1 AFR1        0.0000
     12 C1          3.0340    1.4750   -1.1600 C.3       1 AFR1        0.0000
     13 H11         2.5720    1.3920   -2.1700 H         1 AFR1        0.0000
     14 H12         3.7630    0.6370   -1.0640 H         1 AFR1        0.0000
     15 O1          3.7510    2.7170   -1.0650 O.3       1 AFR1        0.0000
     16 HO1         3.1370    3.4400   -1.2650 H         1 AFR1        0.0000
     17 C3          0.7280    2.2690   -0.2270 C.3       1 AFR1        0.0000
     18 H3          0.4650    2.6380    0.7920 H         1 AFR1        0.0000
     19 O3          0.9010    3.4030   -1.0620 O.3       1 AFR1        0.0000
     20 HO3         0.5270    4.1800   -0.6210 H         1 AFR1        0.0000
     21 C4         -0.3960    1.3320   -0.6930 C.3       1 AFR1        0.0000
     22 H4         -0.3990    1.2200   -1.7990 H         1 AFR1        0.0000
     23 O4         -1.6640    1.7290   -0.2280 O.3       1 AFR1        0.0000
     24 HO4        -2.0570    2.3570   -0.8440 H         1 AFR1        0.0000
@<TRIPOS>BOND
     1   13   12 1 
     2   22   21 1 
     3    8    7 1 
     4   16   15 1 
     5   12   15 1 
     6   12   14 1 
     7   12    2 1 
     8   19   20 1 
     9   19   17 1 
    10   24   23 1 
    11   21   23 1 
    12   21   17 1 
    13   21    5 1 
    14    7    9 1 
    15    7    5 1 
    16    7   10 1 
    17    1    2 1 
    18    1    5 1 
    19   17    2 1 
    20   17   18 1 
    21    2    3 1 
    22    5    6 1 
    23   11   10 1 
    24    4    3 1 
