@<TRIPOS>MOLECULE
C:\Users\Praveer\PycharmProjects\pdb_to_mol2_converter\data\pdb\afuc.pdb
   23    23     0     0     0
SMALL
GASTEIGER

@<TRIPOS>ATOM
      1 C1          1.4440   -0.0170   -0.0320 C.3       1 AFU1        0.0000
      2 H1          1.8170   -0.5310    0.8850 H         1 AFU1        0.0000
      3 O1          1.9510   -0.7000   -1.1510 O.3       1 AFU1        0.0000
      4 HO1         1.6910   -1.6200   -1.0500 H         1 AFU1        0.0000
      5 C5         -0.5870    0.7070   -1.0580 C.3       1 AFU1        0.0000
      6 H5         -0.2770    0.2620   -2.0330 H         1 AFU1        0.0000
      7 O5          0.0170   -0.0440    0.0050 O.3       1 AFU1        0.0000
      8 C2          1.9610    1.4190   -0.0100 C.3       1 AFU1        0.0000
      9 H2          1.6290    1.8660    0.9590 H         1 AFU1        0.0000
     10 O2          3.3940    1.4890   -0.0310 O.3       1 AFU1        0.0000
     11 HO2         3.7080    0.8580   -0.6920 H         1 AFU1        0.0000
     12 C3          1.3530    2.2400   -1.1320 C.3       1 AFU1        0.0000
     13 H3          1.6710    1.7960   -2.1060 H         1 AFU1        0.0000
     14 O3          1.8240    3.5880   -1.1040 O.3       1 AFU1        0.0000
     15 HO3         2.7420    3.5540   -0.8010 H         1 AFU1        0.0000
     16 C4         -0.1560    2.1730   -1.0500 C.3       1 AFU1        0.0000
     17 H4         -0.5880    2.6710   -1.9510 H         1 AFU1        0.0000
     18 O4         -0.6420    2.8660    0.0960 O.3       1 AFU1        0.0000
     19 HO4        -0.2020    3.7250    0.1080 H         1 AFU1        0.0000
     20 C6         -2.1090    0.5140   -0.9360 C.3       1 AFU1        0.0000
     21 H61        -2.3650   -0.5650   -0.9850 H         1 AFU1        0.0000
     22 H62        -2.6390    1.0490   -1.7500 H         1 AFU1        0.0000
     23 H63        -2.4620    0.9130    0.0390 H         1 AFU1        0.0000
@<TRIPOS>BOND
     1   13   12 1 
     2    6    5 1 
     3   17   16 1 
     4   22   20 1 
     5    3    4 1 
     6    3    1 1 
     7   12   14 1 
     8   12   16 1 
     9   12    8 1 
    10   14   15 1 
    11    5   16 1 
    12    5   20 1 
    13    5    7 1 
    14   16   18 1 
    15   21   20 1 
    16   20   23 1 
    17   11   10 1 
    18    1    8 1 
    19    1    7 1 
    20    1    2 1 
    21   10    8 1 
    22    8    9 1 
    23   18   19 1 
