@<TRIPOS>MOLECULE
C:\Users\Praveer\PycharmProjects\pdb_to_mol2_converter\data\pdb\afucna.pdb
   29    29     0     0     0
SMALL
GASTEIGER

@<TRIPOS>ATOM
      1 C1          1.4410    0.1550    0.0430 C.3       1 AFU1        0.0000
      2 H1          1.8590   -0.2160    1.0090 H         1 AFU1        0.0000
      3 O1          1.9200   -0.6810   -0.9730 O.3       1 AFU1        0.0000
      4 HO1         1.6020   -1.5640   -0.7660 H         1 AFU1        0.0000
      5 C5         -0.6200    0.6650   -1.0250 C.3       1 AFU1        0.0000
      6 H5         -0.2770    0.1440   -1.9510 H         1 AFU1        0.0000
      7 O5          0.0190    0.0820    0.1170 O.3       1 AFU1        0.0000
      8 C2          1.9720    1.5600   -0.1860 C.3       1 AFU1        0.0000
      9 H2          1.7800    2.1320    0.7550 H         1 AFU1        0.0000
     10 N           3.4160    1.4910   -0.3880 N.am      1 AFU1        0.0000
     11 HN          3.7310    0.5810   -0.6580 H         1 AFU1        0.0000
     12 C           4.2870    2.5000   -0.2670 C.2       1 AFU1        0.0000
     13 O           3.9490    3.6400    0.0140 O.2       1 AFU1        0.0000
     14 CT          5.7390    2.1370   -0.5270 C.3       1 AFU1        0.0000
     15 HT1         5.7990    1.2620   -1.1990 H         1 AFU1        0.0000
     16 HT2         6.2480    1.8820    0.4240 H         1 AFU1        0.0000
     17 HT3         6.2510    3.0030   -1.0070 H         1 AFU1        0.0000
     18 C3          1.2440    2.2680   -1.3130 C.3       1 AFU1        0.0000
     19 H3          1.5330    1.7550   -2.2680 H         1 AFU1        0.0000
     20 O3          1.6210    3.6360   -1.3950 O.3       1 AFU1        0.0000
     21 HO3         2.5080    3.7590   -0.9760 H         1 AFU1        0.0000
     22 C4         -0.2580    2.1360   -1.1390 C.3       1 AFU1        0.0000
     23 H4         -0.7520    2.5610   -2.0460 H         1 AFU1        0.0000
     24 O4         -0.7210    2.8830   -0.0130 O.3       1 AFU1        0.0000
     25 HO4        -0.3010    3.7470   -0.0570 H         1 AFU1        0.0000
     26 C6         -2.1310    0.3910   -0.8980 C.3       1 AFU1        0.0000
     27 H61        -2.3300   -0.7010   -0.8770 H         1 AFU1        0.0000
     28 H62        -2.6850    0.8270   -1.7540 H         1 AFU1        0.0000
     29 H63        -2.5170    0.8370    0.0430 H         1 AFU1        0.0000
@<TRIPOS>BOND
     1   19   18 1 
     2   23   22 1 
     3    6    5 1 
     4   28   26 1 
     5   20   18 1 
     6   20   21 1 
     7   18   22 1 
     8   18    8 1 
     9   15   14 1 
    10   22    5 1 
    11   22   24 1 
    12    5   26 1 
    13    5    7 1 
    14   17   14 1 
    15    3    4 1 
    16    3    1 1 
    17   26   27 1 
    18   26   29 1 
    19   11   10 1 
    20   14   12 1 
    21   14   16 1 
    22   10   12 am
    23   10    8 1 
    24   12   13 2 
    25    8    1 1 
    26    8    9 1 
    27   25   24 1 
    28    1    7 1 
    29    1    2 1 
