@<TRIPOS>MOLECULE
C:\Users\Praveer\PycharmProjects\pdb_to_mol2_converter\data\pdb\agalna.pdb
   30    30     0     0     0
SMALL
GASTEIGER

@<TRIPOS>ATOM
      1 C1          1.4290    0.0020    0.0040 C.3       1 AGA1        0.0000
      2 H1          1.7680   -0.5060   -0.9290 H         1 AGA1        0.0000
      3 O1          1.9630   -0.6890    1.0980 O.3       1 AGA1        0.0000
      4 HO1         1.8140   -1.6250    0.9470 H         1 AGA1        0.0000
      5 C5         -0.5620    0.6450    1.1670 C.3       1 AGA1        0.0000
      6 H5         -0.1820    0.1540    2.0960 H         1 AGA1        0.0000
      7 O5         -0.0040    0.0010    0.0020 O.3       1 AGA1        0.0000
      8 C2          1.9490    1.4340    0.0060 C.3       1 AGA1        0.0000
      9 H2          1.5530    1.9160   -0.9220 H         1 AGA1        0.0000
     10 N           3.3950    1.5670   -0.0640 N.am      1 AGA1        0.0000
     11 HN          3.8210    2.0210    0.7120 H         1 AGA1        0.0000
     12 C           4.1270    1.1690   -1.1080 C.2       1 AGA1        0.0000
     13 O           3.6290    0.6520   -2.1000 O.2       1 AGA1        0.0000
     14 CT          5.6130    1.3930   -1.0100 C.3       1 AGA1        0.0000
     15 HT1         6.0220    0.8330   -0.1440 H         1 AGA1        0.0000
     16 HT2         5.8240    2.4750   -0.8890 H         1 AGA1        0.0000
     17 HT3         6.0970    1.0300   -1.9410 H         1 AGA1        0.0000
     18 C3          1.3760    2.1870    1.1870 C.3       1 AGA1        0.0000
     19 H3          1.7620    1.7150    2.1220 H         1 AGA1        0.0000
     20 O3          1.8220    3.5380    1.1890 O.3       1 AGA1        0.0000
     21 HO3         1.2170    4.0410    0.6270 H         1 AGA1        0.0000
     22 C4         -0.1370    2.1050    1.1920 C.3       1 AGA1        0.0000
     23 H4         -0.5120    2.5720    2.1340 H         1 AGA1        0.0000
     24 O4         -0.7130    2.8190    0.1000 O.3       1 AGA1        0.0000
     25 HO4        -0.6770    2.2630   -0.6880 H         1 AGA1        0.0000
     26 C6         -2.0650    0.4630    1.1420 C.3       1 AGA1        0.0000
     27 H61        -2.4930    0.8470    0.1900 H         1 AGA1        0.0000
     28 H62        -2.5250    1.0380    1.9780 H         1 AGA1        0.0000
     29 O6         -2.4210   -0.9110    1.2970 O.3       1 AGA1        0.0000
     30 HO6        -2.0880   -1.4100    0.5430 H         1 AGA1        0.0000
@<TRIPOS>BOND
     1   13   12 2 
     2   17   14 1 
     3   12   14 1 
     4   12   10 am
     5   14   16 1 
     6   14   15 1 
     7    2    1 1 
     8    9    8 1 
     9   25   24 1 
    10   10    8 1 
    11   10   11 1 
    12    7    1 1 
    13    7    5 1 
    14    1    8 1 
    15    1    3 1 
    16    8   18 1 
    17   24   22 1 
    18   27   26 1 
    19   30   29 1 
    20   21   20 1 
    21    4    3 1 
    22   26    5 1 
    23   26   29 1 
    24   26   28 1 
    25    5   22 1 
    26    5    6 1 
    27   18   20 1 
    28   18   22 1 
    29   18   19 1 
    30   22   23 1 
