@<TRIPOS>MOLECULE
C:\Users\Praveer\PycharmProjects\pdb_to_mol2_converter\data\pdb\agalaa.pdb
   36    36     0     0     0
SMALL
GASTEIGER

@<TRIPOS>ATOM
      1 C1          1.4260    0.2760   -0.1640 C.3       1 AGA1        0.0000
      2 H1          1.7410   -0.1230   -1.1550 H         1 AGA1        0.0000
      3 O1          2.0450   -0.4810    0.8350 O.3       1 AGA1        0.0000
      4 HO1         1.7460   -1.3880    0.7110 H         1 AGA1        0.0000
      5 C5         -0.5390    0.6970    1.1480 C.3       1 AGA1        0.0000
      6 H5         -0.0590    0.1790    2.0160 H         1 AGA1        0.0000
      7 O5         -0.0040    0.1900   -0.0940 O.3       1 AGA1        0.0000
      8 C2          1.8670    1.7330   -0.0430 C.3       1 AGA1        0.0000
      9 H2          1.4550    2.2670   -0.9340 H         1 AGA1        0.0000
     10 N           3.2940    1.9990   -0.0600 N.am      1 AGA1        0.0000
     11 HN          3.5430    2.6320    0.6710 H         1 AGA1        0.0000
     12 C           4.1800    1.5460   -0.9600 C.2       1 AGA1        0.0000
     13 O           3.8740    0.8150   -1.9000 O.2       1 AGA1        0.0000
     14 CA          5.6250    1.9640   -0.7850 C.3       1 AGA1        0.0000
     15 HA          5.8820    1.8710    0.2700 H         1 AGA1        0.0000
     16 N2          6.5230    1.0720   -1.5870 N.4       1 AGA1        0.0000
     17 HT1         6.2070    1.1110   -2.5800 H         1 AGA1        0.0000
     18 HT2         6.4260    0.0870   -1.2720 H         1 AGA1        0.0000
     19 HT3         7.5140    1.3730   -1.5230 H         1 AGA1        0.0000
     20 CB          5.8020    3.4240   -1.2680 C.3       1 AGA1        0.0000
     21 HB1         5.0470    4.0910   -0.7930 H         1 AGA1        0.0000
     22 HB2         5.6700    3.5140   -2.3700 H         1 AGA1        0.0000
     23 HB3         6.8020    3.8250   -0.9990 H         1 AGA1        0.0000
     24 C3          1.2700    2.3640    1.1930 C.3       1 AGA1        0.0000
     25 H3          1.7180    1.8700    2.0910 H         1 AGA1        0.0000
     26 O3          1.6300    3.7380    1.2550 O.3       1 AGA1        0.0000
     27 HO3         0.8970    4.2360    0.8570 H         1 AGA1        0.0000
     28 C4         -0.2270    2.1770    1.2460 C.3       1 AGA1        0.0000
     29 H4         -0.5980    2.5580    2.2280 H         1 AGA1        0.0000
     30 O4         -0.8920    2.9120    0.2200 O.3       1 AGA1        0.0000
     31 HO4        -0.9730    2.3540   -0.5650 H         1 AGA1        0.0000
     32 C6         -2.0240    0.4080    1.2260 C.3       1 AGA1        0.0000
     33 H61        -2.5530    0.7800    0.3200 H         1 AGA1        0.0000
     34 H62        -2.4470    0.9410    2.1080 H         1 AGA1        0.0000
     35 O6         -2.2810   -0.9850    1.3950 O.3       1 AGA1        0.0000
     36 HO6        -2.2150   -1.4410    0.5480 H         1 AGA1        0.0000
@<TRIPOS>BOND
     1   17   16 1 
     2   22   20 1 
     3   13   12 2 
     4   16   19 1 
     5   16   18 1 
     6   16   14 1 
     7   20   23 1 
     8   20   21 1 
     9   20   14 1 
    10    2    1 1 
    11   12   14 1 
    12   12   10 am
    13    9    8 1 
    14   14   15 1 
    15   31   30 1 
    16    1    7 1 
    17    1    8 1 
    18    1    3 1 
    19    7    5 1 
    20   10    8 1 
    21   10   11 1 
    22    8   24 1 
    23   30   28 1 
    24   33   32 1 
    25   36   35 1 
    26    4    3 1 
    27   27   26 1 
    28    5   32 1 
    29    5   28 1 
    30    5    6 1 
    31   24   28 1 
    32   24   26 1 
    33   24   25 1 
    34   32   35 1 
    35   32   34 1 
    36   28   29 1 
