@<TRIPOS>MOLECULE
C:\Users\Praveer\PycharmProjects\pdb_to_mol2_converter\data\pdb\agal.pdb
   24    24     0     0     0
SMALL
GASTEIGER

@<TRIPOS>ATOM
      1 C1          1.3780    0.0640    0.0300 C.3       1 AGA1        0.0000
      2 H1          1.7270   -0.4800   -0.8800 H         1 AGA1        0.0000
      3 O1          1.9430   -0.5590    1.1550 O.3       1 AGA1        0.0000
      4 HO1         1.7300   -1.4940    1.0870 H         1 AGA1        0.0000
      5 C5         -0.6350    0.7870    1.1080 C.3       1 AGA1        0.0000
      6 H5         -0.2430    0.4020    2.0800 H         1 AGA1        0.0000
      7 O5         -0.0480    0.0040    0.0500 O.3       1 AGA1        0.0000
      8 C2          1.8590    1.5100   -0.0720 C.3       1 AGA1        0.0000
      9 H2          1.4840    1.9060   -1.0470 H         1 AGA1        0.0000
     10 O2          3.2890    1.6130   -0.1060 O.3       1 AGA1        0.0000
     11 HO2         3.6440    1.0140    0.5640 H         1 AGA1        0.0000
     12 C3          1.2710    2.3660    1.0340 C.3       1 AGA1        0.0000
     13 H3          1.6370    1.9750    2.0140 H         1 AGA1        0.0000
     14 O3          1.7060    3.7220    0.9260 O.3       1 AGA1        0.0000
     15 HO3         2.6220    3.6980    0.6160 H         1 AGA1        0.0000
     16 C4         -0.2400    2.2650    1.0140 C.3       1 AGA1        0.0000
     17 H4         -0.6440    2.7950    1.9090 H         1 AGA1        0.0000
     18 O4         -0.7770    2.9050   -0.1420 O.3       1 AGA1        0.0000
     19 HO4        -0.3180    3.7530   -0.2220 H         1 AGA1        0.0000
     20 C6         -2.1360    0.5420    1.1380 C.3       1 AGA1        0.0000
     21 H61        -2.5870    1.0780    2.0020 H         1 AGA1        0.0000
     22 H62        -2.3370   -0.5460    1.2660 H         1 AGA1        0.0000
     23 O6         -2.7840    0.9800   -0.0540 O.3       1 AGA1        0.0000
     24 HO6        -2.2690    1.7330   -0.3930 H         1 AGA1        0.0000
@<TRIPOS>BOND
     1    9    8 1 
     2    2    1 1 
     3   24   23 1 
     4   19   18 1 
     5   18   16 1 
     6   10    8 1 
     7   10   11 1 
     8    8    1 1 
     9    8   12 1 
    10   23   20 1 
    11    1    7 1 
    12    1    3 1 
    13    7    5 1 
    14   15   14 1 
    15   14   12 1 
    16   16   12 1 
    17   16    5 1 
    18   16   17 1 
    19   12   13 1 
    20    4    3 1 
    21    5   20 1 
    22    5    6 1 
    23   20   22 1 
    24   20   21 1 
