@<TRIPOS>MOLECULE
C:\Users\Praveer\PycharmProjects\pdb_to_mol2_converter\data\pdb\agaln.pdb
   25    25     0     0     0
SMALL
GASTEIGER

@<TRIPOS>ATOM
      1 C1          1.3990    0.0710    0.1210 C.3       1 AGA1        0.0000
      2 H1          1.8010   -0.4800   -0.7610 H         1 AGA1        0.0000
      3 O1          1.9120   -0.5260    1.2810 O.3       1 AGA1        0.0000
      4 HO1         1.7290   -1.4660    1.2140 H         1 AGA1        0.0000
      5 C5         -0.6620    0.7810    1.1060 C.3       1 AGA1        0.0000
      6 H5         -0.3140    0.3860    2.0910 H         1 AGA1        0.0000
      7 O5         -0.0270    0.0060    0.0700 O.3       1 AGA1        0.0000
      8 C2          1.8780    1.5190    0.0190 C.3       1 AGA1        0.0000
      9 H2          1.4950    1.9000   -0.9610 H         1 AGA1        0.0000
     10 N2          3.3300    1.6880   -0.0360 N.3       1 AGA1        0.0000
     11 HN21        3.7440    1.8270   -0.9350 H         1 AGA1        0.0000
     12 HN22        3.8360    1.1290    0.6240 H         1 AGA1        0.0000
     13 C3          1.2510    2.3540    1.1100 C.3       1 AGA1        0.0000
     14 H3          1.6010    1.9650    2.0960 H         1 AGA1        0.0000
     15 O3          1.7070    3.6980    0.9950 O.3       1 AGA1        0.0000
     16 HO3         2.6400    3.6200    0.7460 H         1 AGA1        0.0000
     17 C4         -0.2590    2.2580    1.0470 C.3       1 AGA1        0.0000
     18 H4         -0.6840    2.7760    1.9390 H         1 AGA1        0.0000
     19 O4         -0.7620    2.9200   -0.1120 O.3       1 AGA1        0.0000
     20 HO4        -0.2650    3.7480   -0.1820 H         1 AGA1        0.0000
     21 C6         -2.1630    0.5370    1.0710 C.3       1 AGA1        0.0000
     22 H61        -2.6470    1.0680    1.9210 H         1 AGA1        0.0000
     23 H62        -2.3700   -0.5510    1.1830 H         1 AGA1        0.0000
     24 O6         -2.7610    0.9870   -0.1420 O.3       1 AGA1        0.0000
     25 HO6        -2.2430    1.7550   -0.4410 H         1 AGA1        0.0000
@<TRIPOS>BOND
     1    9    8 1 
     2   11   10 1 
     3    2    1 1 
     4   25   24 1 
     5   20   19 1 
     6   24   21 1 
     7   19   17 1 
     8   10    8 1 
     9   10   12 1 
    10    8    1 1 
    11    8   13 1 
    12    7    1 1 
    13    7    5 1 
    14    1    3 1 
    15   16   15 1 
    16   15   13 1 
    17   17    5 1 
    18   17   13 1 
    19   17   18 1 
    20   21    5 1 
    21   21   23 1 
    22   21   22 1 
    23    5    6 1 
    24   13   14 1 
    25    4    3 1 
