@<TRIPOS>MOLECULE
C:\Users\Praveer\PycharmProjects\pdb_to_mol2_converter\data\pdb\agala.pdb
   22    22     0     0     0
SMALL
GASTEIGER

@<TRIPOS>ATOM
      1 C1          1.4290   -0.0040    0.0200 C.3       1 AGA1        0.0000
      2 H1          1.7660   -0.5330   -0.8990 H         1 AGA1        0.0000
      3 O1          1.9600   -0.6840    1.1280 O.3       1 AGA1        0.0000
      4 HO1         1.6350   -1.5830    1.0350 H         1 AGA1        0.0000
      5 C5         -0.5530    0.7100    1.1240 C.3       1 AGA1        0.0000
      6 H5         -0.2160    0.2640    2.0850 H         1 AGA1        0.0000
      7 O5          0.0090   -0.0390    0.0180 O.3       1 AGA1        0.0000
      8 C2          1.9300    1.4350   -0.0440 C.3       1 AGA1        0.0000
      9 H2          1.5460    1.8570   -1.0030 H         1 AGA1        0.0000
     10 O2          3.3590    1.4960   -0.1210 O.3       1 AGA1        0.0000
     11 HO2         3.7110    1.2180    0.7330 H         1 AGA1        0.0000
     12 C3          1.3500    2.2690    1.1010 C.3       1 AGA1        0.0000
     13 H3          1.7040    1.8260    2.0590 H         1 AGA1        0.0000
     14 O3          1.7980    3.6260    1.1090 O.3       1 AGA1        0.0000
     15 HO3         1.4670    4.0570    0.2790 H         1 AGA1        0.0000
     16 C4         -0.1560    2.1830    1.0780 C.3       1 AGA1        0.0000
     17 H4         -0.5850    2.7000    1.9720 H         1 AGA1        0.0000
     18 O4         -0.6660    2.8230   -0.0890 O.3       1 AGA1        0.0000
     19 HO4        -1.5070    2.3290   -0.2460 H         1 AGA1        0.0000
     20 C6         -2.0880    0.6350    1.0990 C.2       1 AGA1        0.0000
     21 O61        -2.5750    0.6620    2.2600 O.co2     1 AGA1        0.0000
     22 O62        -2.5970    1.0630    0.0240 O.co2     1 AGA1        0.0000
@<TRIPOS>BOND
     1    9    8 1 
     2    2    1 1 
     3   19   18 1 
     4   10    8 1 
     5   10   11 1 
     6   18   16 1 
     7    8    1 1 
     8    8   12 1 
     9    7    1 1 
    10    7    5 1 
    11    1    3 1 
    12   22   20 ar
    13   15   14 1 
    14    4    3 1 
    15   16   12 1 
    16   16    5 1 
    17   16   17 1 
    18   20    5 1 
    19   20   21 ar
    20   12   14 1 
    21   12   13 1 
    22    5    6 1 
