@<TRIPOS>MOLECULE
C:\Users\Praveer\PycharmProjects\pdb_to_mol2_converter\data\pdb\aglaa.pdb
   28    28     0     0     0
SMALL
GASTEIGER

@<TRIPOS>ATOM
      1 C1          1.4490   -0.0330   -0.0100 C.3       1 AGL1        0.0000
      2 H1          1.7770   -0.5340   -0.9480 H         1 AGL1        0.0000
      3 O1          2.0050   -0.7210    1.0770 O.3       1 AGL1        0.0000
      4 HO1         1.6830   -1.6210    0.9990 H         1 AGL1        0.0000
      5 C5         -0.5340    0.6120    1.1720 C.3       1 AGL1        0.0000
      6 H5         -0.1710    0.1200    2.0990 H         1 AGL1        0.0000
      7 O5          0.0230   -0.0690    0.0170 O.3       1 AGL1        0.0000
      8 C2          1.9420    1.4080   -0.0110 C.3       1 AGL1        0.0000
      9 H2          1.5180    1.8820   -0.9320 H         1 AGL1        0.0000
     10 N           3.3850    1.5720   -0.0960 N.am      1 AGL1        0.0000
     11 HN          3.7830    2.0760    0.6620 H         1 AGL1        0.0000
     12 C           4.1450    1.1510   -1.1110 C.2       1 AGL1        0.0000
     13 O           3.6930    0.5750   -2.0920 O.2       1 AGL1        0.0000
     14 CT          5.6190    1.4330   -0.9930 C.3       1 AGL1        0.0000
     15 HT1         6.0350    0.8900   -0.1190 H         1 AGL1        0.0000
     16 HT2         5.7860    2.5220   -0.8710 H         1 AGL1        0.0000
     17 HT3         6.1300    1.0850   -1.9160 H         1 AGL1        0.0000
     18 C3          1.3850    2.1540    1.1830 C.3       1 AGL1        0.0000
     19 H3          1.7770    1.6780    2.1120 H         1 AGL1        0.0000
     20 O3          1.8310    3.5050    1.1780 O.3       1 AGL1        0.0000
     21 HO3         1.1950    3.9660    0.6100 H         1 AGL1        0.0000
     22 C4         -0.1260    2.0840    1.2010 C.3       1 AGL1        0.0000
     23 H4         -0.5030    2.5400    2.1490 H         1 AGL1        0.0000
     24 O4         -0.6840    2.8180    0.1100 O.3       1 AGL1        0.0000
     25 HO4        -1.5230    2.3330   -0.0880 H         1 AGL1        0.0000
     26 C6         -2.0650    0.5130    1.1810 C.2       1 AGL1        0.0000
     27 O61        -2.5520   -0.0410    2.2000 O.co2     1 AGL1        0.0000
     28 O62        -2.6530    1.0640    0.2100 O.co2     1 AGL1        0.0000
@<TRIPOS>BOND
     1   13   12 2 
     2   17   14 1 
     3   12   14 1 
     4   12   10 am
     5   14   16 1 
     6   14   15 1 
     7    2    1 1 
     8    9    8 1 
     9   10    8 1 
    10   10   11 1 
    11   25   24 1 
    12    8    1 1 
    13    8   18 1 
    14    1    7 1 
    15    1    3 1 
    16    7    5 1 
    17   24   22 1 
    18   28   26 ar
    19   21   20 1 
    20    4    3 1 
    21    5   26 1 
    22    5   22 1 
    23    5    6 1 
    24   20   18 1 
    25   26   27 ar
    26   18   22 1 
    27   18   19 1 
    28   22   23 1 
