@<TRIPOS>MOLECULE
C:\Users\Praveer\PycharmProjects\pdb_to_mol2_converter\data\pdb\aglc.pdb
   24    24     0     0     0
SMALL
GASTEIGER

@<TRIPOS>ATOM
      1 C1          1.4200    0.0410   -0.0260 C.3       1 AGL1        0.0000
      2 H1          1.7370   -0.4970   -0.9510 H         1 AGL1        0.0000
      3 O1          1.9390   -0.6500    1.0800 O.3       1 AGL1        0.0000
      4 HO1         1.6210   -1.5560    1.0260 H         1 AGL1        0.0000
      5 C5         -0.5400    0.8300    1.1110 C.3       1 AGL1        0.0000
      6 H5         -0.2040    0.3540    2.0630 H         1 AGL1        0.0000
      7 O5         -0.0080    0.1050   -0.0190 O.3       1 AGL1        0.0000
      8 C2          1.9890    1.4540   -0.0780 C.3       1 AGL1        0.0000
      9 H2          1.6220    1.9180   -1.0260 H         1 AGL1        0.0000
     10 O2          3.4210    1.4710   -0.1370 O.3       1 AGL1        0.0000
     11 HO2         3.7530    0.8540    0.5290 H         1 AGL1        0.0000
     12 C3          1.4700    2.2930    1.0720 C.3       1 AGL1        0.0000
     13 H3          1.8350    1.8490    2.0300 H         1 AGL1        0.0000
     14 O3          1.9630    3.6310    0.9990 O.3       1 AGL1        0.0000
     15 HO3         2.8760    3.5810    0.6840 H         1 AGL1        0.0000
     16 C4         -0.0420    2.2680    1.0790 C.3       1 AGL1        0.0000
     17 H4         -0.4120    2.7470    0.1400 H         1 AGL1        0.0000
     18 O4         -0.5600    3.0040    2.1780 O.3       1 AGL1        0.0000
     19 HO4        -0.0460    3.8210    2.2320 H         1 AGL1        0.0000
     20 C6         -2.0510    0.7300    1.0560 C.3       1 AGL1        0.0000
     21 H61        -2.4330    1.2180    0.1320 H         1 AGL1        0.0000
     22 H62        -2.4970    1.2590    1.9300 H         1 AGL1        0.0000
     23 O6         -2.4880   -0.6300    1.0830 O.3       1 AGL1        0.0000
     24 HO6        -2.1250   -1.0840    0.3150 H         1 AGL1        0.0000
@<TRIPOS>BOND
     1    9    8 1 
     2    2    1 1 
     3   10    8 1 
     4   10   11 1 
     5    8    1 1 
     6    8   12 1 
     7    1    7 1 
     8    1    3 1 
     9    7    5 1 
    10   21   20 1 
    11   17   16 1 
    12   24   23 1 
    13   15   14 1 
    14   14   12 1 
    15    4    3 1 
    16   20   23 1 
    17   20    5 1 
    18   20   22 1 
    19   12   16 1 
    20   12   13 1 
    21   16    5 1 
    22   16   18 1 
    23    5    6 1 
    24   18   19 1 
