@<TRIPOS>MOLECULE
C:\Users\Praveer\PycharmProjects\pdb_to_mol2_converter\data\pdb\aglca.pdb
   22    22     0     0     0
SMALL
GASTEIGER

@<TRIPOS>ATOM
      1 C1          1.4950   -0.0400    0.0900 C.3       1 AGL1        0.0000
      2 H1          1.9090   -0.5740   -0.7940 H         1 AGL1        0.0000
      3 O1          1.9930   -0.6530    1.2510 O.3       1 AGL1        0.0000
      4 HO1         1.6540   -1.5510    1.2400 H         1 AGL1        0.0000
      5 C5         -0.5970    0.6470    1.0400 C.3       1 AGL1        0.0000
      6 H5         -0.4390    0.0850    1.9870 H         1 AGL1        0.0000
      7 O5          0.0810   -0.0690   -0.0250 O.3       1 AGL1        0.0000
      8 C2          1.9290    1.4110    0.0260 C.3       1 AGL1        0.0000
      9 H2          1.4970    1.8350   -0.9130 H         1 AGL1        0.0000
     10 O2          3.3510    1.5440   -0.0890 O.3       1 AGL1        0.0000
     11 HO2         3.7390    1.0170    0.6210 H         1 AGL1        0.0000
     12 C3          1.3700    2.2150    1.1870 C.3       1 AGL1        0.0000
     13 H3          1.7790    1.8060    2.1420 H         1 AGL1        0.0000
     14 O3          1.7980    3.5750    1.0760 O.3       1 AGL1        0.0000
     15 HO3         2.5850    3.5730    0.5190 H         1 AGL1        0.0000
     16 C4         -0.1430    2.0970    1.2220 C.3       1 AGL1        0.0000
     17 H4         -0.5540    2.7050    0.3770 H         1 AGL1        0.0000
     18 O4         -0.6930    2.5990    2.4410 O.3       1 AGL1        0.0000
     19 HO4        -1.5940    2.2100    2.4860 H         1 AGL1        0.0000
     20 C6         -2.1120    0.7060    0.8010 C.2       1 AGL1        0.0000
     21 O61        -2.7720    0.9000    1.8520 O.co2     1 AGL1        0.0000
     22 O62        -2.5190    0.6400   -0.3800 O.co2     1 AGL1        0.0000
@<TRIPOS>BOND
     1    9    8 1 
     2    2    1 1 
     3   22   20 ar
     4   10    8 1 
     5   10   11 1 
     6    7    1 1 
     7    7    5 1 
     8    8    1 1 
     9    8   12 1 
    10    1    3 1 
    11   17   16 1 
    12   15   14 1 
    13   20    5 1 
    14   20   21 ar
    15    5   16 1 
    16    5    6 1 
    17   14   12 1 
    18   12   16 1 
    19   12   13 1 
    20   16   18 1 
    21    4    3 1 
    22   18   19 1 
