@<TRIPOS>MOLECULE
C:\Users\Praveer\PycharmProjects\pdb_to_mol2_converter\data\pdb\aglcna.pdb
   30    30     0     0     0
SMALL
GASTEIGER

@<TRIPOS>ATOM
      1 C1          1.3080   -0.0740    0.0820 C.3       1 AGL1        0.0000
      2 H1          1.6740   -0.6250   -0.8160 H         1 AGL1        0.0000
      3 O1          1.8240   -0.7080    1.2180 O.3       1 AGL1        0.0000
      4 HO1         1.5140   -1.6180    1.2010 H         1 AGL1        0.0000
      5 C5         -0.7160    0.6580    1.1360 C.3       1 AGL1        0.0000
      6 H5         -0.4030    0.2050    2.1080 H         1 AGL1        0.0000
      7 O5         -0.1180   -0.0590    0.0370 O.3       1 AGL1        0.0000
      8 C2          1.8500    1.3410    0.0230 C.3       1 AGL1        0.0000
      9 H2          1.4830    1.7550   -0.9520 H         1 AGL1        0.0000
     10 N           3.3080    1.3600    0.0000 N.am      1 AGL1        0.0000
     11 HN          3.7530    0.6170    0.4900 H         1 AGL1        0.0000
     12 C           4.0290    2.3190   -0.5910 C.2       1 AGL1        0.0000
     13 O           3.4980    3.2820   -1.1270 O.2       1 AGL1        0.0000
     14 CT          5.5270    2.1700   -0.5490 C.3       1 AGL1        0.0000
     15 HT1         5.8150    1.1380   -0.8350 H         1 AGL1        0.0000
     16 HT2         5.8970    2.3980    0.4710 H         1 AGL1        0.0000
     17 HT3         5.9840    2.8860   -1.2650 H         1 AGL1        0.0000
     18 C3          1.2510    2.1890    1.1270 C.3       1 AGL1        0.0000
     19 H3          1.6140    1.7980    2.1090 H         1 AGL1        0.0000
     20 O3          1.6760    3.5460    1.0190 O.3       1 AGL1        0.0000
     21 HO3         2.2760    3.6350    0.2570 H         1 AGL1        0.0000
     22 C4         -0.2600    2.1070    1.0970 C.3       1 AGL1        0.0000
     23 H4         -0.6210    2.5610    0.1430 H         1 AGL1        0.0000
     24 O4         -0.8310    2.8410    2.1720 O.3       1 AGL1        0.0000
     25 HO4        -0.3140    3.6540    2.2540 H         1 AGL1        0.0000
     26 C6         -2.2190    0.5120    1.0190 C.3       1 AGL1        0.0000
     27 H61        -2.5750    0.9830    0.0740 H         1 AGL1        0.0000
     28 H62        -2.7180    1.0330    1.8680 H         1 AGL1        0.0000
     29 O6         -2.6160   -0.8610    1.0360 O.3       1 AGL1        0.0000
     30 HO6        -2.2070   -1.3070    0.2870 H         1 AGL1        0.0000
@<TRIPOS>BOND
     1   17   14 1 
     2   13   12 2 
     3    9    8 1 
     4   15   14 1 
     5    2    1 1 
     6   12   14 1 
     7   12   10 am
     8   14   16 1 
     9   10    8 1 
    10   10   11 1 
    11    8    1 1 
    12    8   18 1 
    13    7    1 1 
    14    7    5 1 
    15   27   26 1 
    16    1    3 1 
    17   23   22 1 
    18   21   20 1 
    19   30   29 1 
    20   20   18 1 
    21   26   29 1 
    22   26    5 1 
    23   26   28 1 
    24   22   18 1 
    25   22    5 1 
    26   22   24 1 
    27   18   19 1 
    28    5    6 1 
    29    4    3 1 
    30   24   25 1 
