@<TRIPOS>MOLECULE
C:\Users\Praveer\PycharmProjects\pdb_to_mol2_converter\data\pdb\aglcn.pdb
   25    25     0     0     0
SMALL
GASTEIGER

@<TRIPOS>ATOM
      1 C1          1.4380    0.0230    0.0760 C.3       1 AGL1        0.0000
      2 H1          1.8090   -0.5230   -0.8230 H         1 AGL1        0.0000
      3 O1          1.9030   -0.6470    1.2160 O.3       1 AGL1        0.0000
      4 HO1         1.6190   -1.5620    1.1480 H         1 AGL1        0.0000
      5 C5         -0.5770    0.8110    1.1110 C.3       1 AGL1        0.0000
      6 H5         -0.2900    0.3380    2.0820 H         1 AGL1        0.0000
      7 O5          0.0100    0.0780    0.0120 O.3       1 AGL1        0.0000
      8 C2          2.0090    1.4380    0.0310 C.3       1 AGL1        0.0000
      9 H2          1.6410    1.8910   -0.9250 H         1 AGL1        0.0000
     10 N2          3.4670    1.5180   -0.0330 N.3       1 AGL1        0.0000
     11 HN21        3.8900    1.6700   -0.9270 H         1 AGL1        0.0000
     12 HN22        3.9470    0.9190    0.6120 H         1 AGL1        0.0000
     13 C3          1.4380    2.2570    1.1620 C.3       1 AGL1        0.0000
     14 H3          1.7700    1.8100    2.1300 H         1 AGL1        0.0000
     15 O3          1.9570    3.5810    1.0960 O.3       1 AGL1        0.0000
     16 HO3         2.8870    3.4750    0.8530 H         1 AGL1        0.0000
     17 C4         -0.0710    2.2450    1.0990 C.3       1 AGL1        0.0000
     18 H4         -0.3930    2.7240    0.1430 H         1 AGL1        0.0000
     19 O4         -0.6320    2.9920    2.1700 O.3       1 AGL1        0.0000
     20 HO4        -0.0990    3.7930    2.2540 H         1 AGL1        0.0000
     21 C6         -2.0840    0.7170    0.9820 C.3       1 AGL1        0.0000
     22 H61        -2.4150    1.2000    0.0360 H         1 AGL1        0.0000
     23 H62        -2.5700    1.2540    1.8280 H         1 AGL1        0.0000
     24 O6         -2.5260   -0.6410    0.9970 O.3       1 AGL1        0.0000
     25 HO6        -2.1010   -1.1080    0.2700 H         1 AGL1        0.0000
@<TRIPOS>BOND
     1   11   10 1 
     2    9    8 1 
     3    2    1 1 
     4   10    8 1 
     5   10   12 1 
     6    7    1 1 
     7    7    5 1 
     8    8    1 1 
     9    8   13 1 
    10   22   21 1 
    11    1    3 1 
    12   18   17 1 
    13   25   24 1 
    14   16   15 1 
    15   21   24 1 
    16   21    5 1 
    17   21   23 1 
    18   15   13 1 
    19   17    5 1 
    20   17   13 1 
    21   17   19 1 
    22    5    6 1 
    23    4    3 1 
    24   13   14 1 
    25   19   20 1 
