@<TRIPOS>MOLECULE
C:\Users\Praveer\PycharmProjects\pdb_to_mol2_converter\data\pdb\agul.pdb
   24    24     0     0     0
SMALL
GASTEIGER

@<TRIPOS>ATOM
      1 C1          1.4380   -0.0080    0.0160 C.3       1 AGU1        0.0000
      2 H1          1.7480   -0.5820   -0.8880 H         1 AGU1        0.0000
      3 O1          1.9340   -0.6980    1.1330 O.3       1 AGU1        0.0000
      4 HO1         1.8120   -0.1070    1.8880 H         1 AGU1        0.0000
      5 C5         -0.5210    0.8730    1.0810 C.3       1 AGU1        0.0000
      6 H5         -0.2030    0.4260    2.0540 H         1 AGU1        0.0000
      7 O5          0.0090    0.0990   -0.0160 O.3       1 AGU1        0.0000
      8 C2          2.0610    1.3860   -0.0650 C.3       1 AGU1        0.0000
      9 H2          1.7480    1.8250   -1.0410 H         1 AGU1        0.0000
     10 O2          3.4920    1.3620   -0.0810 O.3       1 AGU1        0.0000
     11 HO2         3.7890    0.7070    0.5640 H         1 AGU1        0.0000
     12 C3          1.5220    2.2850    1.0370 C.3       1 AGU1        0.0000
     13 H3          1.8860    3.3260    0.8510 H         1 AGU1        0.0000
     14 O3          1.9810    1.8930    2.3330 O.3       1 AGU1        0.0000
     15 HO3         2.7170    2.4620    2.5920 H         1 AGU1        0.0000
     16 C4          0.0110    2.2980    1.0050 C.3       1 AGU1        0.0000
     17 H4         -0.3670    2.8740    1.8840 H         1 AGU1        0.0000
     18 O4         -0.4640    2.9520   -0.1650 O.3       1 AGU1        0.0000
     19 HO4        -0.5100    2.3150   -0.8880 H         1 AGU1        0.0000
     20 C6         -2.0320    0.7960    1.0230 C.3       1 AGU1        0.0000
     21 H61        -2.4040    1.1100    0.0220 H         1 AGU1        0.0000
     22 H62        -2.4730    1.4830    1.7810 H         1 AGU1        0.0000
     23 O6         -2.4900   -0.5270    1.3000 O.3       1 AGU1        0.0000
     24 HO6        -2.0880   -1.1360    0.6700 H         1 AGU1        0.0000
@<TRIPOS>BOND
     1    9    8 1 
     2    2    1 1 
     3   19   18 1 
     4   18   16 1 
     5   10    8 1 
     6   10   11 1 
     7    8    1 1 
     8    8   12 1 
     9    7    1 1 
    10    7    5 1 
    11    1    3 1 
    12   21   20 1 
    13   24   23 1 
    14   13   12 1 
    15   16   12 1 
    16   16    5 1 
    17   16   17 1 
    18   20    5 1 
    19   20   23 1 
    20   20   22 1 
    21   12   14 1 
    22    5    6 1 
    23    3    4 1 
    24   14   15 1 
