@<TRIPOS>MOLECULE
C:\Users\Praveer\PycharmProjects\pdb_to_mol2_converter\data\pdb\aguln.pdb
   25    25     0     0     0
SMALL
GASTEIGER

@<TRIPOS>ATOM
      1 C1          1.4490   -0.0280    0.0750 C.3       1 AGU1        0.0000
      2 H1          1.7920   -0.5940   -0.8220 H         1 AGU1        0.0000
      3 O1          1.9040   -0.7260    1.2000 O.3       1 AGU1        0.0000
      4 HO1         1.8080   -0.1130    1.9400 H         1 AGU1        0.0000
      5 C5         -0.5380    0.8530    1.0810 C.3       1 AGU1        0.0000
      6 H5         -0.2430    0.4060    2.0620 H         1 AGU1        0.0000
      7 O5          0.0220    0.0850   -0.0040 O.3       1 AGU1        0.0000
      8 C2          2.0970    1.3610    0.0350 C.3       1 AGU1        0.0000
      9 H2          1.8200    1.7960   -0.9570 H         1 AGU1        0.0000
     10 N2          3.5560    1.3670    0.0610 N.3       1 AGU1        0.0000
     11 HN21        4.0420    1.9270   -0.6100 H         1 AGU1        0.0000
     12 HN22        3.9850    0.5120    0.3620 H         1 AGU1        0.0000
     13 C3          1.5020    2.2640    1.0950 C.3       1 AGU1        0.0000
     14 H3          1.8800    3.3020    0.9250 H         1 AGU1        0.0000
     15 O3          1.9330    1.8650    2.3920 O.3       1 AGU1        0.0000
     16 HO3         2.8910    1.9940    2.4210 H         1 AGU1        0.0000
     17 C4         -0.0050    2.2760    1.0140 C.3       1 AGU1        0.0000
     18 H4         -0.4090    2.8590    1.8760 H         1 AGU1        0.0000
     19 O4         -0.4400    2.9180   -0.1790 O.3       1 AGU1        0.0000
     20 HO4        -0.4840    2.2640   -0.8860 H         1 AGU1        0.0000
     21 C6         -2.0470    0.7750    0.9860 C.3       1 AGU1        0.0000
     22 H61        -2.3950    1.0890   -0.0230 H         1 AGU1        0.0000
     23 H62        -2.5080    1.4600    1.7340 H         1 AGU1        0.0000
     24 O6         -2.5090   -0.5490    1.2490 O.3       1 AGU1        0.0000
     25 HO6        -2.0660   -1.1600    0.6490 H         1 AGU1        0.0000
@<TRIPOS>BOND
     1    9    8 1 
     2   20   19 1 
     3    2    1 1 
     4   11   10 1 
     5   19   17 1 
     6   22   21 1 
     7    7    1 1 
     8    7    5 1 
     9    8   10 1 
    10    8    1 1 
    11    8   13 1 
    12   10   12 1 
    13    1    3 1 
    14   25   24 1 
    15   14   13 1 
    16   21    5 1 
    17   21   24 1 
    18   21   23 1 
    19   17    5 1 
    20   17   13 1 
    21   17   18 1 
    22    5    6 1 
    23   13   15 1 
    24    3    4 1 
    25   15   16 1 
