@<TRIPOS>MOLECULE
C:\Users\Praveer\PycharmProjects\pdb_to_mol2_converter\data\pdb\agulna.pdb
   30    30     0     0     0
SMALL
GASTEIGER

@<TRIPOS>ATOM
      1 C1          1.4250   -0.0660    0.0570 C.3       1 AGU1        0.0000
      2 H1          1.7370   -0.6610   -0.8330 H         1 AGU1        0.0000
      3 O1          1.9120   -0.7320    1.1860 O.3       1 AGU1        0.0000
      4 HO1         1.8330   -0.0970    1.9130 H         1 AGU1        0.0000
      5 C5         -0.5340    0.8570    1.0800 C.3       1 AGU1        0.0000
      6 H5         -0.2350    0.4150    2.0610 H         1 AGU1        0.0000
      7 O5         -0.0000    0.0660    0.0000 O.3       1 AGU1        0.0000
      8 C2          2.0880    1.2990   -0.0190 C.3       1 AGU1        0.0000
      9 H2          1.7980    1.7190   -1.0160 H         1 AGU1        0.0000
     10 N           3.5410    1.2120   -0.0110 N.am      1 AGU1        0.0000
     11 HN          3.9230    0.3660    0.3480 H         1 AGU1        0.0000
     12 C           4.3410    2.2040   -0.4160 C.2       1 AGU1        0.0000
     13 O           3.9040    3.2660   -0.8320 O.2       1 AGU1        0.0000
     14 CT          5.8230    1.9500   -0.3280 C.3       1 AGU1        0.0000
     15 HT1         6.0830    1.0200   -0.8750 H         1 AGU1        0.0000
     16 HT2         6.1280    1.8550    0.7340 H         1 AGU1        0.0000
     17 HT3         6.3640    2.8040   -0.7860 H         1 AGU1        0.0000
     18 C3          1.5300    2.2360    1.0370 C.3       1 AGU1        0.0000
     19 H3          1.9100    3.2690    0.8370 H         1 AGU1        0.0000
     20 O3          1.9740    1.8570    2.3380 O.3       1 AGU1        0.0000
     21 HO3         2.6020    2.5150    2.6600 H         1 AGU1        0.0000
     22 C4          0.0210    2.2700    0.9910 C.3       1 AGU1        0.0000
     23 H4         -0.3550    2.8620    1.8610 H         1 AGU1        0.0000
     24 O4         -0.4370    2.9220   -0.1870 O.3       1 AGU1        0.0000
     25 HO4        -0.3930    2.3080   -0.9280 H         1 AGU1        0.0000
     26 C6         -2.0450    0.8040    1.0030 C.3       1 AGU1        0.0000
     27 H61        -2.3980    1.1200   -0.0040 H         1 AGU1        0.0000
     28 H62        -2.4850    1.5000    1.7520 H         1 AGU1        0.0000
     29 O6         -2.5250   -0.5120    1.2770 O.3       1 AGU1        0.0000
     30 HO6        -2.1110   -1.1280    0.6620 H         1 AGU1        0.0000
@<TRIPOS>BOND
     1    9    8 1 
     2   25   24 1 
     3   15   14 1 
     4    2    1 1 
     5   13   12 2 
     6   17   14 1 
     7   12   14 1 
     8   12   10 am
     9   14   16 1 
    10   24   22 1 
    11    8   10 1 
    12    8    1 1 
    13    8   18 1 
    14   10   11 1 
    15   27   26 1 
    16    7    1 1 
    17    7    5 1 
    18    1    3 1 
    19   30   29 1 
    20   19   18 1 
    21   22   18 1 
    22   22    5 1 
    23   22   23 1 
    24   26    5 1 
    25   26   29 1 
    26   26   28 1 
    27   18   20 1 
    28    5    6 1 
    29    3    4 1 
    30   20   21 1 
