@<TRIPOS>MOLECULE
C:\Users\Praveer\PycharmProjects\pdb_to_mol2_converter\data\pdb\ahep.pdb
   28    28     0     0     0
SMALL
GASTEIGER

@<TRIPOS>ATOM
      1 C1          1.4150   -0.0210    0.0090 C.3       1 AHE1        0.0000
      2 H1          1.7730   -0.5480   -0.9080 H         1 AHE1        0.0000
      3 O1          1.9280   -0.6970    1.1230 O.3       1 AHE1        0.0000
      4 HO1         1.7570   -1.6360    1.0100 H         1 AHE1        0.0000
      5 C5         -0.5960    0.7170    1.1030 C.3       1 AHE1        0.0000
      6 H5         -0.3250    0.1720    2.0390 H         1 AHE1        0.0000
      7 O5         -0.0150    0.0100   -0.0230 O.3       1 AHE1        0.0000
      8 C2          1.9410    1.4020   -0.0260 C.3       1 AHE1        0.0000
      9 H2          3.0570    1.3630    0.0190 H         1 AHE1        0.0000
     10 O2          1.5950    2.0640   -1.2500 O.3       1 AHE1        0.0000
     11 HO2         0.6530    1.9430   -1.4290 H         1 AHE1        0.0000
     12 C3          1.4500    2.1750    1.1780 C.3       1 AHE1        0.0000
     13 H3          1.8430    1.6850    2.1020 H         1 AHE1        0.0000
     14 O3          1.9430    3.5150    1.1740 O.3       1 AHE1        0.0000
     15 HO3         2.0240    3.7890    0.2510 H         1 AHE1        0.0000
     16 C4         -0.0630    2.1450    1.2340 C.3       1 AHE1        0.0000
     17 H4         -0.4640    2.7440    0.3810 H         1 AHE1        0.0000
     18 O4         -0.5300    2.7380    2.4390 O.3       1 AHE1        0.0000
     19 HO4        -0.0370    3.5600    2.5610 H         1 AHE1        0.0000
     20 C6         -2.1210    0.6840    0.9880 C.3       1 AHE1        0.0000
     21 H6         -2.5500    1.2680    1.8360 H         1 AHE1        0.0000
     22 O6         -2.5740    1.2890   -0.2280 O.3       1 AHE1        0.0000
     23 HO6        -2.7400    0.5380   -0.8130 H         1 AHE1        0.0000
     24 C7         -2.6780   -0.7260    1.0670 C.3       1 AHE1        0.0000
     25 H71        -3.7920   -0.7050    1.0430 H         1 AHE1        0.0000
     26 H72        -2.3690   -1.2010    2.0250 H         1 AHE1        0.0000
     27 O7         -2.2030   -1.5220   -0.0250 O.3       1 AHE1        0.0000
     28 HO7        -1.2930   -1.2230   -0.1800 H         1 AHE1        0.0000
@<TRIPOS>BOND
     1   11   10 1 
     2   10    8 1 
     3    2    1 1 
     4   23   22 1 
     5   22   20 1 
     6   28   27 1 
     7    8    1 1 
     8    8    9 1 
     9    8   12 1 
    10   27   24 1 
    11    7    1 1 
    12    7    5 1 
    13    1    3 1 
    14   15   14 1 
    15   17   16 1 
    16   20   24 1 
    17   20    5 1 
    18   20   21 1 
    19    4    3 1 
    20   25   24 1 
    21   24   26 1 
    22    5   16 1 
    23    5    6 1 
    24   14   12 1 
    25   12   16 1 
    26   12   13 1 
    27   16   18 1 
    28   18   19 1 
