@<TRIPOS>MOLECULE
C:\Users\Praveer\PycharmProjects\pdb_to_mol2_converter\data\pdb\aidona.pdb
   30    30     0     0     0
SMALL
GASTEIGER

@<TRIPOS>ATOM
      1 C1          1.5120   -0.0290   -0.0900 C.3       1 AID1        0.0000
      2 H1          1.9470   -0.5660    0.7870 H         1 AID1        0.0000
      3 O1          1.9410   -0.6850   -1.2530 O.3       1 AID1        0.0000
      4 HO1         1.7290   -1.6180   -1.1480 H         1 AID1        0.0000
      5 C5         -0.5740    0.6960   -1.0080 C.3       1 AID1        0.0000
      6 H5         -0.3210    0.2240   -1.9880 H         1 AID1        0.0000
      7 O5          0.0910   -0.0230    0.0550 O.3       1 AID1        0.0000
      8 C2          2.0320    1.4000   -0.0620 C.3       1 AID1        0.0000
      9 H2          3.1310    1.3480   -0.2800 H         1 AID1        0.0000
     10 N           1.8720    2.0020    1.2530 N.am      1 AID1        0.0000
     11 HN          1.0020    1.8240    1.7020 H         1 AID1        0.0000
     12 C           2.7340    2.8750    1.7890 C.2       1 AID1        0.0000
     13 O           3.7750    3.1980    1.2360 O.2       1 AID1        0.0000
     14 CT          2.3500    3.4560    3.1230 C.3       1 AID1        0.0000
     15 HT1         2.4010    2.6700    3.9040 H         1 AID1        0.0000
     16 HT2         1.3220    3.8710    3.0750 H         1 AID1        0.0000
     17 HT3         3.0590    4.2720    3.3800 H         1 AID1        0.0000
     18 C3          1.3780    2.2390   -1.1410 C.3       1 AID1        0.0000
     19 H3          1.6940    3.3010   -1.0070 H         1 AID1        0.0000
     20 O3          1.8300    1.8440   -2.4300 O.3       1 AID1        0.0000
     21 HO3         1.9880    0.8850   -2.4020 H         1 AID1        0.0000
     22 C4         -0.1340    2.1590   -1.0700 C.3       1 AID1        0.0000
     23 H4         -0.5620    2.6050   -2.0000 H         1 AID1        0.0000
     24 O4         -0.6530    2.9070    0.0290 O.3       1 AID1        0.0000
     25 HO4        -0.8720    3.8010   -0.2550 H         1 AID1        0.0000
     26 C6         -2.0680    0.5440   -0.8120 C.3       1 AID1        0.0000
     27 H61        -2.6120    1.1590   -1.5640 H         1 AID1        0.0000
     28 H62        -2.3600    0.9020    0.2020 H         1 AID1        0.0000
     29 O6         -2.4800   -0.8140   -0.9710 O.3       1 AID1        0.0000
     30 HO6        -2.0880   -1.3380   -0.2640 H         1 AID1        0.0000
@<TRIPOS>BOND
     1   20   21 1 
     2   20   18 1 
     3   23   22 1 
     4    6    5 1 
     5   27   26 1 
     6    3    4 1 
     7    3    1 1 
     8   18   22 1 
     9   18   19 1 
    10   18    8 1 
    11   22    5 1 
    12   22   24 1 
    13    5   26 1 
    14    5    7 1 
    15   29   26 1 
    16   29   30 1 
    17   26   28 1 
    18    9    8 1 
    19   25   24 1 
    20    1    8 1 
    21    1    7 1 
    22    1    2 1 
    23    8   10 1 
    24   13   12 2 
    25   10   11 1 
    26   10   12 am
    27   12   14 1 
    28   16   14 1 
    29   14   17 1 
    30   14   15 1 
