@<TRIPOS>MOLECULE
C:\Users\Praveer\PycharmProjects\pdb_to_mol2_converter\data\pdb\aido.pdb
   24    24     0     0     0
SMALL
GASTEIGER

@<TRIPOS>ATOM
      1 C1          1.3440    0.0120    0.0090 C.3       1 AID1        0.0000
      2 H1          1.6710   -0.4860   -0.9340 H         1 AID1        0.0000
      3 O1          1.8740   -0.7210    1.0830 O.3       1 AID1        0.0000
      4 HO1         1.6140   -1.6380    0.9490 H         1 AID1        0.0000
      5 C5         -0.6320    0.7230    1.1590 C.3       1 AID1        0.0000
      6 H5         -0.2940    0.2260    2.1000 H         1 AID1        0.0000
      7 O5         -0.0870    0.0220    0.0200 O.3       1 AID1        0.0000
      8 C2          1.9130    1.4320    0.0170 C.3       1 AID1        0.0000
      9 H2          3.0210    1.3580    0.1360 H         1 AID1        0.0000
     10 O2          1.6800    2.1030   -1.2280 O.3       1 AID1        0.0000
     11 HO2         2.4710    2.5790   -1.5070 H         1 AID1        0.0000
     12 C3          1.3520    2.2340    1.1750 C.3       1 AID1        0.0000
     13 H3          1.6640    3.3020    1.0720 H         1 AID1        0.0000
     14 O3          1.8990    1.7800    2.4070 O.3       1 AID1        0.0000
     15 HO3         1.9640    0.8120    2.3690 H         1 AID1        0.0000
     16 C4         -0.1580    2.1730    1.1940 C.3       1 AID1        0.0000
     17 H4         -0.5330    2.6500    2.1300 H         1 AID1        0.0000
     18 O4         -0.6960    2.9100    0.1040 O.3       1 AID1        0.0000
     19 HO4        -0.2140    2.6310   -0.6910 H         1 AID1        0.0000
     20 C6         -2.1410    0.6030    1.1050 C.3       1 AID1        0.0000
     21 H61        -2.5260    1.0050    0.1400 H         1 AID1        0.0000
     22 H62        -2.5940    1.2030    1.9270 H         1 AID1        0.0000
     23 O6         -2.5610   -0.7530    1.2540 O.3       1 AID1        0.0000
     24 HO6        -2.2550   -1.2530    0.4890 H         1 AID1        0.0000
@<TRIPOS>BOND
     1   11   10 1 
     2   10    8 1 
     3    2    1 1 
     4   19   18 1 
     5    1    8 1 
     6    1    7 1 
     7    1    3 1 
     8    8    9 1 
     9    8   12 1 
    10    7    5 1 
    11   18   16 1 
    12   21   20 1 
    13   24   23 1 
    14    4    3 1 
    15   13   12 1 
    16   20    5 1 
    17   20   23 1 
    18   20   22 1 
    19    5   16 1 
    20    5    6 1 
    21   12   16 1 
    22   12   14 1 
    23   16   17 1 
    24   15   14 1 
