@<TRIPOS>MOLECULE
C:\Users\Praveer\PycharmProjects\pdb_to_mol2_converter\data\pdb\aidoa.pdb
   22    22     0     0     0
SMALL
GASTEIGER

@<TRIPOS>ATOM
      1 C1          1.4980    0.0050   -0.0230 C.3       1 AID1        0.0000
      2 H1          1.9000   -0.4840    0.8950 H         1 AID1        0.0000
      3 O1          1.9680   -0.7140   -1.1340 O.3       1 AID1        0.0000
      4 HO1         1.6240   -1.6050   -1.0220 H         1 AID1        0.0000
      5 C5         -0.5610    0.6720   -1.0490 C.3       1 AID1        0.0000
      6 H5         -0.2740    0.1900   -2.0070 H         1 AID1        0.0000
      7 O5          0.0730   -0.0290    0.0540 O.3       1 AID1        0.0000
      8 C2          2.0150    1.4420   -0.0640 C.3       1 AID1        0.0000
      9 H2          3.1170    1.4130   -0.2370 H         1 AID1        0.0000
     10 O2          1.8280    2.1050    1.1850 O.3       1 AID1        0.0000
     11 HO2         0.8960    2.3970    1.1910 H         1 AID1        0.0000
     12 C3          1.3610    2.2370   -1.1770 C.3       1 AID1        0.0000
     13 H3          1.6570    3.3100   -1.0840 H         1 AID1        0.0000
     14 O3          1.8340    1.7990   -2.4470 O.3       1 AID1        0.0000
     15 HO3         1.8840    0.8300   -2.4140 H         1 AID1        0.0000
     16 C4         -0.1480    2.1460   -1.0870 C.3       1 AID1        0.0000
     17 H4         -0.6020    2.6270   -1.9850 H         1 AID1        0.0000
     18 O4         -0.6200    2.8460    0.0650 O.3       1 AID1        0.0000
     19 HO4        -1.4760    2.3940    0.2690 H         1 AID1        0.0000
     20 C6         -2.0900    0.5660   -0.9430 C.2       1 AID1        0.0000
     21 O61        -2.6470   -0.0290   -1.9000 O.co2     1 AID1        0.0000
     22 O62        -2.6090    1.1450    0.0510 O.co2     1 AID1        0.0000
@<TRIPOS>BOND
     1   14   15 1 
     2   14   12 1 
     3    6    5 1 
     4   17   16 1 
     5   21   20 ar
     6   12   16 1 
     7   12   13 1 
     8   12    8 1 
     9    3    4 1 
    10    3    1 1 
    11   16    5 1 
    12   16   18 1 
    13    5   20 1 
    14    5    7 1 
    15   20   22 ar
    16    9    8 1 
    17    8    1 1 
    18    8   10 1 
    19    1    7 1 
    20    1    2 1 
    21   18   19 1 
    22   10   11 1 
