@<TRIPOS>MOLECULE
C:\Users\Praveer\PycharmProjects\pdb_to_mol2_converter\data\pdb\aidon.pdb
   25    25     0     0     0
SMALL
GASTEIGER

@<TRIPOS>ATOM
      1 C1          1.4390   -0.0100   -0.0260 C.3       1 AID1        0.0000
      2 H1          1.8280   -0.5150    0.8890 H         1 AID1        0.0000
      3 O1          1.9520   -0.6860   -1.1440 O.3       1 AID1        0.0000
      4 HO1         1.7310   -1.6170   -1.0360 H         1 AID1        0.0000
      5 C5         -0.6070    0.6570   -1.0740 C.3       1 AID1        0.0000
      6 H5         -0.2830    0.2060   -2.0430 H         1 AID1        0.0000
      7 O5          0.0100   -0.0600    0.0180 O.3       1 AID1        0.0000
      8 C2          1.9410    1.4390    0.0050 C.3       1 AID1        0.0000
      9 H2          3.0460    1.4110   -0.1740 H         1 AID1        0.0000
     10 N2          1.8010    2.0940    1.3070 N.3       1 AID1        0.0000
     11 HN21        1.7910    1.5130    2.1230 H         1 AID1        0.0000
     12 HN22        2.2320    2.9950    1.4040 H         1 AID1        0.0000
     13 C3          1.3120    2.2380   -1.1220 C.3       1 AID1        0.0000
     14 H3          1.5980    3.3100   -0.9980 H         1 AID1        0.0000
     15 O3          1.8130    1.8250   -2.3890 O.3       1 AID1        0.0000
     16 HO3         1.9410    0.8630   -2.3570 H         1 AID1        0.0000
     17 C4         -0.1930    2.1250   -1.0730 C.3       1 AID1        0.0000
     18 H4         -0.6290    2.6220   -1.9720 H         1 AID1        0.0000
     19 O4         -0.7010    2.8000    0.0700 O.3       1 AID1        0.0000
     20 HO4        -0.1180    2.5580    0.8080 H         1 AID1        0.0000
     21 C6         -2.1080    0.4750   -0.9800 C.3       1 AID1        0.0000
     22 H61        -2.6060    1.0690   -1.7790 H         1 AID1        0.0000
     23 H62        -2.4840    0.8440    0.0010 H         1 AID1        0.0000
     24 O6         -2.4780   -0.8960   -1.1420 O.3       1 AID1        0.0000
     25 HO6        -2.1450   -1.3930   -0.3890 H         1 AID1        0.0000
@<TRIPOS>BOND
     1   15   16 1 
     2   15   13 1 
     3    6    5 1 
     4   18   17 1 
     5   22   21 1 
     6    3    4 1 
     7    3    1 1 
     8   24   21 1 
     9   24   25 1 
    10   13   17 1 
    11   13   14 1 
    12   13    8 1 
    13    5   17 1 
    14    5   21 1 
    15    5    7 1 
    16   17   19 1 
    17   21   23 1 
    18    9    8 1 
    19    1    8 1 
    20    1    7 1 
    21    1    2 1 
    22    8   10 1 
    23   19   20 1 
    24   10   12 1 
    25   10   11 1 
