@<TRIPOS>MOLECULE
C:\Users\Praveer\PycharmProjects\pdb_to_mol2_converter\data\pdb\akda.pdb
   36    36     0     0     0
SMALL
GASTEIGER

@<TRIPOS>ATOM
      1 C1          2.1230    1.3510   -0.1370 C.2       1 AKD1        0.0000
      2 O11         2.6890    1.6780   -1.2180 O.co2     1 AKD1        0.0000
      3 O12         1.7250    2.1180    0.7860 O.co2     1 AKD1        0.0000
      4 C2          1.5890   -0.1190   -0.0350 C.3       1 AKD1        0.0000
      5 O2          1.9380   -0.7220    1.2040 O.3       1 AKD1        0.0000
      6 C6          1.5160   -2.2680   -1.1090 C.3       1 AKD1        0.0000
      7 H6          1.8740   -2.7370   -0.1620 H         1 AKD1        0.0000
      8 O6          2.0160   -0.9190   -1.1600 O.3       1 AKD1        0.0000
      9 C9          3.3440   -0.7880    1.4390 C.3       1 AKD1        0.0000
     10 H91         3.7700    0.2360    1.5280 H         1 AKD1        0.0000
     11 H92         3.8550   -1.3150    0.6020 H         1 AKD1        0.0000
     12 C10         3.4490   -1.5170    2.7460 C.2       1 AKD1        0.0000
     13 H10         2.9340   -1.0220    3.5860 H         1 AKD1        0.0000
     14 C11         4.0870   -2.6810    2.9620 C.2       1 AKD1        0.0000
     15 H11A        4.5930   -3.1930    2.1300 H         1 AKD1        0.0000
     16 H11B        4.1020   -3.1380    3.9620 H         1 AKD1        0.0000
     17 C3          0.0620   -0.1370    0.0350 C.3       1 AKD1        0.0000
     18 H31        -0.3140    0.4120   -0.8570 H         1 AKD1        0.0000
     19 H32        -0.2490    0.4390    0.9350 H         1 AKD1        0.0000
     20 C4         -0.5140   -1.5140    0.0730 C.3       1 AKD1        0.0000
     21 H4         -0.1830   -2.0300    1.0090 H         1 AKD1        0.0000
     22 O4         -1.9300   -1.4010    0.0940 O.3       1 AKD1        0.0000
     23 HO4        -2.1760   -0.8890    0.8700 H         1 AKD1        0.0000
     24 C5         -0.0100   -2.3230   -1.1080 C.3       1 AKD1        0.0000
     25 H5         -0.3330   -3.3820   -0.9770 H         1 AKD1        0.0000
     26 O5         -0.5640   -1.8560   -2.3350 O.3       1 AKD1        0.0000
     27 HO5        -1.3510   -1.3570   -2.0880 H         1 AKD1        0.0000
     28 C7          2.1520   -3.0390   -2.2480 C.3       1 AKD1        0.0000
     29 H7          1.7230   -2.6870   -3.2160 H         1 AKD1        0.0000
     30 O7          1.9140   -4.4440   -2.1050 O.3       1 AKD1        0.0000
     31 HO7         2.6680   -4.8160   -2.5840 H         1 AKD1        0.0000
     32 C8          3.6580   -2.8310   -2.2610 C.3       1 AKD1        0.0000
     33 H81         4.0940   -3.2140   -1.3100 H         1 AKD1        0.0000
     34 H82         3.9080   -1.7480   -2.3360 H         1 AKD1        0.0000
     35 O8          4.2580   -3.5250   -3.3670 O.3       1 AKD1        0.0000
     36 HO8         4.4420   -2.8610   -4.0390 H         1 AKD1        0.0000
@<TRIPOS>BOND
     1   36   35 1 
     2   35   32 1 
     3   29   28 1 
     4   31   30 1 
     5   34   32 1 
     6   26   27 1 
     7   26   24 1 
     8   32   28 1 
     9   32   33 1 
    10   28   30 1 
    11   28    6 1 
    12    2    1 ar
    13    8    6 1 
    14    8    4 1 
    15    6   24 1 
    16    6    7 1 
    17   24   25 1 
    18   24   20 1 
    19   18   17 1 
    20    1    4 1 
    21    1    3 ar
    22    4   17 1 
    23    4    5 1 
    24   17   20 1 
    25   17   19 1 
    26   20   22 1 
    27   20   21 1 
    28   22   23 1 
    29   11    9 1 
    30    5    9 1 
    31    9   10 1 
    32    9   12 1 
    33   15   14 1 
    34   12   14 2 
    35   12   13 1 
    36   14   16 1 
