@<TRIPOS>MOLECULE
C:\Users\Praveer\PycharmProjects\pdb_to_mol2_converter\data\pdb\akdn.pdb
   33    33     0     0     0
SMALL
GASTEIGER

@<TRIPOS>ATOM
      1 C1          2.2790    1.3220   -0.0600 C.2       1 AKD1        0.0000
      2 O11         3.0890    1.5430    0.8860 O.co2     1 AKD1        0.0000
      3 O12         1.9960    2.0770   -1.0270 O.co2     1 AKD1        0.0000
      4 C2          1.5110   -0.0490    0.0050 C.3       1 AKD1        0.0000
      5 O2          1.8410   -0.7440    1.1800 O.3       1 AKD1        0.0000
      6 HO2         2.5500   -0.1800    1.5240 H         1 AKD1        0.0000
      7 C6          1.5870   -0.6440   -2.3760 C.3       1 AKD1        0.0000
      8 H6          1.9920    0.3440   -2.6910 H         1 AKD1        0.0000
      9 O6          2.0140   -0.9270   -1.0160 O.3       1 AKD1        0.0000
     10 C3         -0.0070    0.0620   -0.0830 C.3       1 AKD1        0.0000
     11 H31        -0.3540    0.8120    0.6620 H         1 AKD1        0.0000
     12 H32        -0.4360   -0.9250    0.2130 H         1 AKD1        0.0000
     13 C4         -0.4980    0.3950   -1.4450 C.3       1 AKD1        0.0000
     14 H4         -0.1690    1.4210   -1.7400 H         1 AKD1        0.0000
     15 O4         -1.9200    0.3920   -1.4230 O.3       1 AKD1        0.0000
     16 HO4        -2.2060    1.0500   -0.7810 H         1 AKD1        0.0000
     17 C5          0.0530   -0.5990   -2.4470 C.3       1 AKD1        0.0000
     18 H5         -0.3310   -1.6140   -2.1820 H         1 AKD1        0.0000
     19 O5         -0.4440   -0.2550   -3.7340 O.3       1 AKD1        0.0000
     20 HO5        -1.3280    0.1030   -3.5570 H         1 AKD1        0.0000
     21 C7          2.2900   -1.7220   -3.2250 C.3       1 AKD1        0.0000
     22 H7          1.8190   -2.7070   -3.0000 H         1 AKD1        0.0000
     23 O7          3.6550   -1.8280   -2.8040 O.3       1 AKD1        0.0000
     24 HO7         3.6100   -1.5180   -1.8830 H         1 AKD1        0.0000
     25 C8          2.2650   -1.5020   -4.7390 C.3       1 AKD1        0.0000
     26 H8          2.3900   -0.4060   -4.9260 H         1 AKD1        0.0000
     27 O8          0.9970   -1.9240   -5.2670 O.3       1 AKD1        0.0000
     28 HO8         0.3550   -1.3110   -4.8570 H         1 AKD1        0.0000
     29 C9          3.3770   -2.2220   -5.4930 C.3       1 AKD1        0.0000
     30 H91         3.2720   -3.3220   -5.3550 H         1 AKD1        0.0000
     31 H92         4.3850   -1.9240   -5.1330 H         1 AKD1        0.0000
     32 O9          3.2950   -1.9030   -6.8840 O.3       1 AKD1        0.0000
     33 HO9         2.3440   -1.9900   -7.0540 H         1 AKD1        0.0000
@<TRIPOS>BOND
     1   33   32 1 
     2   32   29 1 
     3   29   30 1 
     4   29   31 1 
     5   29   25 1 
     6   27   28 1 
     7   27   25 1 
     8   26   25 1 
     9   25   21 1 
    10   19   20 1 
    11   19   17 1 
    12   21   22 1 
    13   21   23 1 
    14   21    7 1 
    15   23   24 1 
    16    8    7 1 
    17   17    7 1 
    18   17   18 1 
    19   17   13 1 
    20    7    9 1 
    21   14   13 1 
    22   13   15 1 
    23   13   10 1 
    24   15   16 1 
    25    3    1 ar
    26    9    4 1 
    27   10    4 1 
    28   10   12 1 
    29   10   11 1 
    30    1    4 1 
    31    1    2 ar
    32    4    5 1 
    33    5    6 1 
