@<TRIPOS>MOLECULE
C:\Users\Praveer\PycharmProjects\pdb_to_mol2_converter\data\pdb\akdo.pdb
   29    29     0     0     0
SMALL
GASTEIGER

@<TRIPOS>ATOM
      1 C1          2.1680    1.2830   -0.0970 C.2       1 AKD1        0.0000
      2 O11         1.7900    1.9170   -1.1210 O.co2     1 AKD1        0.0000
      3 O12         2.7480    1.7500    0.9300 O.co2     1 AKD1        0.0000
      4 C2          1.5680   -0.1540    0.0670 C.3       1 AKD1        0.0000
      5 O2          1.9950   -0.7290    1.2740 O.3       1 AKD1        0.0000
      6 HO2         2.5280    0.0130    1.6060 H         1 AKD1        0.0000
      7 C6          1.5350   -2.2840   -1.0530 C.3       1 AKD1        0.0000
      8 H6          1.8490   -2.8030   -0.1160 H         1 AKD1        0.0000
      9 O6          2.0730   -0.9440   -1.0210 O.3       1 AKD1        0.0000
     10 C3          0.0440   -0.1190    0.0100 C.3       1 AKD1        0.0000
     11 H31        -0.2480    0.3980   -0.9320 H         1 AKD1        0.0000
     12 H32        -0.3300    0.5000    0.8540 H         1 AKD1        0.0000
     13 C4         -0.5510   -1.4870    0.0380 C.3       1 AKD1        0.0000
     14 H4         -0.2840   -1.9940    0.9960 H         1 AKD1        0.0000
     15 O4         -1.9690   -1.3470   -0.0070 O.3       1 AKD1        0.0000
     16 HO4        -2.2440   -0.8720    0.7740 H         1 AKD1        0.0000
     17 C5          0.0030   -2.3140   -1.1100 C.3       1 AKD1        0.0000
     18 H5         -0.3350   -3.3680   -0.9860 H         1 AKD1        0.0000
     19 O5         -0.4980   -1.8530   -2.3640 O.3       1 AKD1        0.0000
     20 HO5        -1.2260   -1.2610   -2.1370 H         1 AKD1        0.0000
     21 C7          2.1910   -3.0210   -2.2080 C.3       1 AKD1        0.0000
     22 H7          1.7960   -2.6140   -3.1680 H         1 AKD1        0.0000
     23 O7          1.9130   -4.4250   -2.1370 O.3       1 AKD1        0.0000
     24 HO7         2.6490   -4.7990   -2.6330 H         1 AKD1        0.0000
     25 C8          3.7020   -2.8530   -2.1910 C.3       1 AKD1        0.0000
     26 H81         4.1220   -3.3010   -1.2610 H         1 AKD1        0.0000
     27 H82         3.9730   -1.7730   -2.1940 H         1 AKD1        0.0000
     28 O8          4.2990   -3.4900   -3.3310 O.3       1 AKD1        0.0000
     29 HO8         4.4860   -2.7870   -3.9650 H         1 AKD1        0.0000
@<TRIPOS>BOND
     1   29   28 1 
     2   28   25 1 
     3   22   21 1 
     4   24   23 1 
     5   19   20 1 
     6   19   17 1 
     7   21   25 1 
     8   21   23 1 
     9   21    7 1 
    10   27   25 1 
    11   25   26 1 
    12    2    1 ar
    13   17    7 1 
    14   17   18 1 
    15   17   13 1 
    16    7    9 1 
    17    7    8 1 
    18    9    4 1 
    19   11   10 1 
    20    1    4 1 
    21    1    3 ar
    22   15   13 1 
    23   15   16 1 
    24   10   13 1 
    25   10    4 1 
    26   10   12 1 
    27   13   14 1 
    28    4    5 1 
    29    5    6 1 
