@<TRIPOS>MOLECULE
C:\Users\Praveer\PycharmProjects\pdb_to_mol2_converter\data\pdb\ako.pdb
   30    30     0     0     0
SMALL
GASTEIGER

@<TRIPOS>ATOM
      1 C1          2.1130    1.2990   -0.2180 C.2       1 AKO1        0.0000
      2 O11         1.8220    1.8200   -1.3300 O.co2     1 AKO1        0.0000
      3 O12         2.5020    1.8850    0.8330 O.co2     1 AKO1        0.0000
      4 C2          1.5120   -0.1360    0.0140 C.3       1 AKO1        0.0000
      5 O2          2.0030   -0.6570    1.2330 O.3       1 AKO1        0.0000
      6 HO2         2.4970    0.1130    1.5550 H         1 AKO1        0.0000
      7 C6          1.5180   -2.3010   -1.0300 C.3       1 AKO1        0.0000
      8 H6          1.8680   -2.7910   -0.0910 H         1 AKO1        0.0000
      9 O6          2.0210   -0.9490   -1.0600 O.3       1 AKO1        0.0000
     10 C3         -0.0160   -0.0780   -0.0050 C.3       1 AKO1        0.0000
     11 H3         -0.3540    0.4960    0.8900 H         1 AKO1        0.0000
     12 O3         -0.5330    0.6040   -1.1630 O.3       1 AKO1        0.0000
     13 HO3         0.1840    1.2250   -1.4160 H         1 AKO1        0.0000
     14 C4         -0.5590   -1.4960    0.0960 C.3       1 AKO1        0.0000
     15 H4         -0.2070   -1.9440    1.0560 H         1 AKO1        0.0000
     16 O4         -1.9830   -1.5050    0.1400 O.3       1 AKO1        0.0000
     17 HO4        -2.2600   -1.0340   -0.6580 H         1 AKO1        0.0000
     18 C5         -0.0130   -2.3450   -1.0440 C.3       1 AKO1        0.0000
     19 H5         -0.3370   -3.4020   -0.8960 H         1 AKO1        0.0000
     20 O5         -0.5280   -1.9130   -2.3010 O.3       1 AKO1        0.0000
     21 HO5        -0.4650   -0.9420   -2.2760 H         1 AKO1        0.0000
     22 C7          2.1560   -3.0320   -2.1950 C.3       1 AKO1        0.0000
     23 H7          1.7930   -2.5710   -3.1450 H         1 AKO1        0.0000
     24 O7          1.8070   -4.4210   -2.1860 O.3       1 AKO1        0.0000
     25 HO7         2.4340   -4.7970   -2.8150 H         1 AKO1        0.0000
     26 C8          3.6720   -2.9340   -2.1560 C.3       1 AKO1        0.0000
     27 H81         4.0600   -3.4910   -1.2730 H         1 AKO1        0.0000
     28 H82         3.9920   -1.8730   -2.0570 H         1 AKO1        0.0000
     29 O8          4.2430   -3.4890   -3.3520 O.3       1 AKO1        0.0000
     30 HO8         4.5380   -2.7420   -3.8850 H         1 AKO1        0.0000
@<TRIPOS>BOND
     1   30   29 1 
     2   29   26 1 
     3   23   22 1 
     4   25   24 1 
     5   20   21 1 
     6   20   18 1 
     7   22   24 1 
     8   22   26 1 
     9   22    7 1 
    10   26   28 1 
    11   26   27 1 
    12   13   12 1 
    13    2    1 ar
    14   12   10 1 
    15    9    7 1 
    16    9    4 1 
    17   18    7 1 
    18   18   19 1 
    19   18   14 1 
    20    7    8 1 
    21   17   16 1 
    22    1    4 1 
    23    1    3 ar
    24   10    4 1 
    25   10   14 1 
    26   10   11 1 
    27    4    5 1 
    28   14   16 1 
    29   14   15 1 
    30    5    6 1 
