@<TRIPOS>MOLECULE
C:\Users\Praveer\PycharmProjects\pdb_to_mol2_converter\data\pdb\al6alt.pdb
   23    23     0     0     0
SMALL
GASTEIGER

@<TRIPOS>ATOM
      1 C1          1.3990   -0.0540   -0.0270 C.3       1 AL61        0.0000
      2 H1          1.7490   -0.5770    0.8950 H         1 AL61        0.0000
      3 O1          1.9720   -0.7070   -1.1300 O.3       1 AL61        0.0000
      4 HO1         1.7790   -1.6440   -1.0320 H         1 AL61        0.0000
      5 C5         -0.5990    0.6060   -1.1610 C.3       1 AL61        0.0000
      6 H5         -0.2690    0.1120   -2.1050 H         1 AL61        0.0000
      7 O5         -0.0300   -0.0810   -0.0340 O.3       1 AL61        0.0000
      8 C2          1.8650    1.3950    0.0450 C.3       1 AL61        0.0000
      9 H2          2.9810    1.4140    0.0140 H         1 AL61        0.0000
     10 O2          1.4840    2.0010    1.2830 O.3       1 AL61        0.0000
     11 HO2         0.5570    1.8100    1.4680 H         1 AL61        0.0000
     12 C3          1.3340    2.2000   -1.1190 C.3       1 AL61        0.0000
     13 H3          1.5840    3.2780   -0.9590 H         1 AL61        0.0000
     14 O3          1.9710    1.8140   -2.3360 O.3       1 AL61        0.0000
     15 HO3         2.1080    0.8520   -2.3010 H         1 AL61        0.0000
     16 C4         -0.1760    2.0740   -1.1970 C.3       1 AL61        0.0000
     17 H4         -0.6230    2.5740   -0.3060 H         1 AL61        0.0000
     18 O4         -0.6920    2.7260   -2.3500 O.3       1 AL61        0.0000
     19 HO4        -0.0190    2.6450   -3.0390 H         1 AL61        0.0000
     20 C6         -2.1220    0.4200   -1.0430 C.3       1 AL61        0.0000
     21 H61        -2.3780   -0.6610   -1.0350 H         1 AL61        0.0000
     22 H62        -2.6380    0.9020   -1.9010 H         1 AL61        0.0000
     23 H63        -2.4950    0.8780   -0.1040 H         1 AL61        0.0000
@<TRIPOS>BOND
     1   19   18 1 
     2   18   16 1 
     3   14   15 1 
     4   14   12 1 
     5    6    5 1 
     6   22   20 1 
     7   16    5 1 
     8   16   12 1 
     9   16   17 1 
    10    5   20 1 
    11    5    7 1 
    12    3    4 1 
    13    3    1 1 
    14   12   13 1 
    15   12    8 1 
    16   20   21 1 
    17   20   23 1 
    18    7    1 1 
    19    1    8 1 
    20    1    2 1 
    21    9    8 1 
    22    8   10 1 
    23   10   11 1 
