@<TRIPOS>MOLECULE
C:\Users\Praveer\PycharmProjects\pdb_to_mol2_converter\data\pdb\al6tal.pdb
   23    23     0     0     0
SMALL
GASTEIGER

@<TRIPOS>ATOM
      1 C1          1.3830   -0.0490   -0.0010 C.3       1 AL61        0.0000
      2 H1          1.7280   -0.5520    0.9340 H         1 AL61        0.0000
      3 O1          1.9390   -0.7360   -1.0890 O.3       1 AL61        0.0000
      4 HO1         1.7230   -1.6650   -0.9710 H         1 AL61        0.0000
      5 C5         -0.6000    0.6290   -1.1370 C.3       1 AL61        0.0000
      6 H5         -0.2450    0.1430   -2.0770 H         1 AL61        0.0000
      7 O5         -0.0470   -0.0740   -0.0140 O.3       1 AL61        0.0000
      8 C2          1.8980    1.3830    0.0130 C.3       1 AL61        0.0000
      9 H2          3.0110    1.3540   -0.0690 H         1 AL61        0.0000
     10 O2          1.5940    2.0390    1.2480 O.3       1 AL61        0.0000
     11 HO2         0.6340    2.2010    1.2400 H         1 AL61        0.0000
     12 C3          1.3500    2.1620   -1.1690 C.3       1 AL61        0.0000
     13 H3          1.7150    1.6790   -2.1070 H         1 AL61        0.0000
     14 O3          1.8280    3.5050   -1.1820 O.3       1 AL61        0.0000
     15 HO3         1.9160    3.7730   -0.2570 H         1 AL61        0.0000
     16 C4         -0.1680    2.0970   -1.1710 C.3       1 AL61        0.0000
     17 H4         -0.5400    2.5360   -2.1270 H         1 AL61        0.0000
     18 O4         -0.7510    2.8420   -0.0990 O.3       1 AL61        0.0000
     19 HO4        -0.8790    3.7520   -0.3870 H         1 AL61        0.0000
     20 C6         -2.1280    0.4350   -1.0810 C.3       1 AL61        0.0000
     21 H61        -2.3760   -0.6470   -1.1030 H         1 AL61        0.0000
     22 H62        -2.6190    0.9340   -1.9410 H         1 AL61        0.0000
     23 H63        -2.5310    0.8650   -0.1400 H         1 AL61        0.0000
@<TRIPOS>BOND
     1   17   16 1 
     2   13   12 1 
     3    6    5 1 
     4   22   20 1 
     5   14   12 1 
     6   14   15 1 
     7   16   12 1 
     8   16    5 1 
     9   16   18 1 
    10   12    8 1 
    11    5   20 1 
    12    5    7 1 
    13   21   20 1 
    14    3    4 1 
    15    3    1 1 
    16   20   23 1 
    17   19   18 1 
    18    9    8 1 
    19    7    1 1 
    20    1    8 1 
    21    1    2 1 
    22    8   10 1 
    23   11   10 1 
