@<TRIPOS>MOLECULE
C:\Users\Praveer\PycharmProjects\pdb_to_mol2_converter\data\pdb\alad.pdb
   22    21     0     0     0
SMALL
GASTEIGER

@<TRIPOS>ATOM
      1 CL         -0.6330   -1.3590   -0.1300 C.3       1 ALA1        0.0000
      2 HL1        -1.7380   -1.2430   -0.1580 H         1 ALA1        0.0000
      3 HL2        -0.3490   -1.8910    0.8020 H         1 ALA1        0.0000
      4 HL3        -0.3100   -1.9570   -1.0090 H         1 ALA1        0.0000
      5 CLP        -0.0020   -0.0180   -0.1720 C.2       1 ALA1        0.0000
      6 OL         -0.6380    0.9700   -0.5110 O.2       1 ALA1        0.0000
      7 NL          1.2850    0.0430    0.1770 N.am      1 ALA1        0.0000
      8 HL          1.8010   -0.7750    0.4150 H         1 ALA1        0.0000
      9 CA          2.0340    1.2750    0.2060 C.3       1 ALA1        0.0000
     10 HA          1.7990    1.8460   -0.6820 H         1 ALA1        0.0000
     11 CB          1.7260    2.1000    1.4760 C.3       1 ALA1        0.0000
     12 HB1         1.9720    1.5210    2.3910 H         1 ALA1        0.0000
     13 HB2         0.6410    2.3430    1.5040 H         1 ALA1        0.0000
     14 HB3         2.2920    3.0550    1.4880 H         1 ALA1        0.0000
     15 CRP         3.5080    0.9190    0.1460 C.2       1 ALA1        0.0000
     16 OR          3.8780   -0.2430    0.3040 O.2       1 ALA1        0.0000
     17 NR          4.3840    1.9110   -0.1110 N.am      1 ALA1        0.0000
     18 HR          4.0640    2.8430   -0.2500 H         1 ALA1        0.0000
     19 CR          5.8070    1.6710   -0.1790 C.3       1 ALA1        0.0000
     20 HR1         6.0590    1.0660   -1.0790 H         1 ALA1        0.0000
     21 HR2         6.1600    1.1170    0.7220 H         1 ALA1        0.0000
     22 HR3         6.3650    2.6320   -0.2340 H         1 ALA1        0.0000
@<TRIPOS>BOND
     1   20   19 1 
     2    4    1 1 
     3   10    9 1 
     4    6    5 2 
     5   18   17 1 
     6   22   19 1 
     7   19   17 1 
     8   19   21 1 
     9    5    1 1 
    10    5    7 am
    11    2    1 1 
    12    1    3 1 
    13   17   15 am
    14   15    9 1 
    15   15   16 2 
    16    7    9 1 
    17    7    8 1 
    18    9   11 1 
    19   11   14 1 
    20   11   13 1 
    21   11   12 1 
