@<TRIPOS>MOLECULE
C:\Users\Praveer\PycharmProjects\pdb_to_mol2_converter\data\pdb\alai.pdb
   13    12     0     0     0
SMALL
GASTEIGER

@<TRIPOS>ATOM
      1 C7          1.0980    0.0040    0.0010 C.3       1 ALA1        0.0000
      2 H71         1.4300   -0.5160    0.9280 H         1 ALA1        0.0000
      3 H72         1.4550   -0.5860   -0.8680 H         1 ALA1        0.0000
      4 H73        -0.0130    0.0150    0.0060 H         1 ALA1        0.0000
      5 C8          1.6680    1.4380   -0.0150 C.3       1 ALA1        0.0000
      6 H8          2.7800    1.4050    0.0240 H         1 ALA1        0.0000
      7 N9          1.2560    2.1010   -1.2860 N.4       1 ALA1        0.0000
      8 H91         0.3010    1.7750   -1.5300 H         1 ALA1        0.0000
      9 H92         1.9290    1.9330   -2.0530 H         1 ALA1        0.0000
     10 H93         1.1990    3.1160   -1.0310 H         1 ALA1        0.0000
     11 C10         1.2080    2.2390    1.2250 C.2       1 ALA1        0.0000
     12 O11         0.6910    3.3680    0.9960 O.co2     1 ALA1        0.0000
     13 O12         1.6190    1.7890    2.3220 O.co2     1 ALA1        0.0000
@<TRIPOS>BOND
     1    9    7 1 
     2    8    7 1 
     3    7   10 1 
     4    7    5 1 
     5    3    1 1 
     6    5    1 1 
     7    5    6 1 
     8    5   11 1 
     9    1    4 1 
    10    1    2 1 
    11   12   11 ar
    12   11   13 ar
