@<TRIPOS>MOLECULE
C:\Users\Praveer\PycharmProjects\pdb_to_mol2_converter\data\pdb\alalt.pdb
   24    24     0     0     0
SMALL
GASTEIGER

@<TRIPOS>ATOM
      1 C1          1.4310   -0.0240   -0.0600 C.3       1 ALA1        0.0000
      2 H1          1.7980   -0.5630    0.8460 H         1 ALA1        0.0000
      3 O1          1.9400   -0.6870   -1.1870 O.3       1 ALA1        0.0000
      4 HO1         1.6990   -1.6150   -1.0960 H         1 ALA1        0.0000
      5 C5         -0.6040    0.6990   -1.1050 C.3       1 ALA1        0.0000
      6 H5         -0.3080    0.2450   -2.0810 H         1 ALA1        0.0000
      7 O5          0.0010   -0.0430   -0.0240 O.3       1 ALA1        0.0000
      8 C2          1.9690    1.4050   -0.0080 C.3       1 ALA1        0.0000
      9 H2          3.0770    1.3640   -0.1430 H         1 ALA1        0.0000
     10 O2          1.7290    2.0180    1.2620 O.3       1 ALA1        0.0000
     11 HO2         2.5130    2.4860    1.5710 H         1 ALA1        0.0000
     12 C3          1.3680    2.2430   -1.1100 C.3       1 ALA1        0.0000
     13 H3          1.6520    3.3130   -0.9510 H         1 ALA1        0.0000
     14 O3          1.9050    1.8690   -2.3780 O.3       1 ALA1        0.0000
     15 HO3         1.9940    0.9010   -2.3840 H         1 ALA1        0.0000
     16 C4         -0.1440    2.1530   -1.0750 C.3       1 ALA1        0.0000
     17 H4         -0.5040    2.6020   -0.1180 H         1 ALA1        0.0000
     18 O4         -0.7270    2.8900   -2.1430 O.3       1 ALA1        0.0000
     19 HO4        -0.1270    2.8150   -2.8970 H         1 ALA1        0.0000
     20 C6         -2.1070    0.5600   -0.9730 C.3       1 ALA1        0.0000
     21 H61        -2.6140    1.1060   -1.8020 H         1 ALA1        0.0000
     22 H62        -2.4460    1.0090   -0.0130 H         1 ALA1        0.0000
     23 O6         -2.5120   -0.8090   -1.0220 O.3       1 ALA1        0.0000
     24 HO6        -2.1090   -1.2690   -0.2790 H         1 ALA1        0.0000
@<TRIPOS>BOND
     1   19   18 1 
     2   15   14 1 
     3   14   12 1 
     4   18   16 1 
     5    6    5 1 
     6   21   20 1 
     7    3    4 1 
     8    3    1 1 
     9   12   16 1 
    10   12   13 1 
    11   12    8 1 
    12    5   16 1 
    13    5   20 1 
    14    5    7 1 
    15   16   17 1 
    16   23   20 1 
    17   23   24 1 
    18   20   22 1 
    19    9    8 1 
    20    1    7 1 
    21    1    8 1 
    22    1    2 1 
    23    8   10 1 
    24   10   11 1 
