@<TRIPOS>MOLECULE
C:\Users\Praveer\PycharmProjects\pdb_to_mol2_converter\data\pdb\alalna.pdb
   30    30     0     0     0
SMALL
GASTEIGER

@<TRIPOS>ATOM
      1 C1          1.5900    0.0720   -0.0690 C.3       1 ALA1        0.0000
      2 H1          1.9090   -0.4820    0.8440 H         1 ALA1        0.0000
      3 O1          2.1960   -0.6000   -1.1330 O.3       1 ALA1        0.0000
      4 HO1         2.1080   -0.0170   -1.8990 H         1 ALA1        0.0000
      5 C5         -0.4730    0.8880   -1.0690 C.3       1 ALA1        0.0000
      6 H5         -1.5430    0.9720   -0.7570 H         1 ALA1        0.0000
      7 O5          0.1560    0.1060   -0.0300 O.3       1 ALA1        0.0000
      8 C2          2.1450    1.4820    0.0390 C.3       1 ALA1        0.0000
      9 H2          3.2560    1.4130   -0.0930 H         1 ALA1        0.0000
     10 N           1.9430    2.0400    1.3730 N.am      1 ALA1        0.0000
     11 HN          1.3240    1.5510    1.9780 H         1 ALA1        0.0000
     12 C           2.6200    3.0970    1.8400 C.2       1 ALA1        0.0000
     13 O           3.3760    3.7550    1.1380 O.2       1 ALA1        0.0000
     14 CT          2.4140    3.4390    3.2930 C.3       1 ALA1        0.0000
     15 HT1         3.2280    2.9830    3.8940 H         1 ALA1        0.0000
     16 HT2         1.4350    3.0580    3.6470 H         1 ALA1        0.0000
     17 HT3         2.4500    4.5400    3.4250 H         1 ALA1        0.0000
     18 C3          1.5950    2.3460   -1.0770 C.3       1 ALA1        0.0000
     19 H3          1.9260    3.4000   -0.9080 H         1 ALA1        0.0000
     20 O3          2.1300    1.9420   -2.3350 O.3       1 ALA1        0.0000
     21 HO3         1.7880    2.5400   -3.0110 H         1 ALA1        0.0000
     22 C4          0.0770    2.3170   -1.0630 C.3       1 ALA1        0.0000
     23 H4         -0.2480    2.7760   -0.0970 H         1 ALA1        0.0000
     24 O4         -0.4960    3.0910   -2.1170 O.3       1 ALA1        0.0000
     25 HO4        -0.9460    3.8680   -1.7650 H         1 ALA1        0.0000
     26 C6         -0.5280    0.1980   -2.4320 C.3       1 ALA1        0.0000
     27 H61         0.4790    0.1290   -2.8870 H         1 ALA1        0.0000
     28 H62        -1.1530    0.7940   -3.1330 H         1 ALA1        0.0000
     29 O6         -1.0670   -1.1250   -2.3620 O.3       1 ALA1        0.0000
     30 HO6        -1.9920   -1.1080   -2.1100 H         1 ALA1        0.0000
@<TRIPOS>BOND
     1   28   26 1 
     2   21   20 1 
     3   27   26 1 
     4   26   29 1 
     5   26    5 1 
     6   29   30 1 
     7   20   18 1 
     8   24   25 1 
     9   24   22 1 
    10    4    3 1 
    11    3    1 1 
    12   18   22 1 
    13   18   19 1 
    14   18    8 1 
    15    5   22 1 
    16    5    6 1 
    17    5    7 1 
    18   22   23 1 
    19    9    8 1 
    20    1    7 1 
    21    1    8 1 
    22    1    2 1 
    23    8   10 1 
    24   13   12 2 
    25   10   12 am
    26   10   11 1 
    27   12   14 1 
    28   14   17 1 
    29   14   16 1 
    30   14   15 1 
