@<TRIPOS>MOLECULE
C:\Users\Praveer\PycharmProjects\pdb_to_mol2_converter\data\pdb\alall.pdb
   24    24     0     0     0
SMALL
GASTEIGER

@<TRIPOS>ATOM
      1 C1          1.4590    0.0010   -0.0770 C.3       1 ALA1        0.0000
      2 H1          1.8330   -0.5220    0.8350 H         1 ALA1        0.0000
      3 O1          1.9520   -0.6900   -1.2000 O.3       1 ALA1        0.0000
      4 HO1         2.8800   -0.8800   -1.0280 H         1 ALA1        0.0000
      5 C5         -0.5970    0.7110   -1.0970 C.3       1 ALA1        0.0000
      6 H5         -0.3060    0.2240   -2.0580 H         1 ALA1        0.0000
      7 O5          0.0310    0.0290    0.0090 O.3       1 ALA1        0.0000
      8 C2          1.9740    1.4390   -0.0510 C.3       1 ALA1        0.0000
      9 H2          1.6370    1.8810    0.9180 H         1 ALA1        0.0000
     10 O2          3.4020    1.5230   -0.0710 O.3       1 ALA1        0.0000
     11 HO2         3.6730    1.7410   -0.9730 H         1 ALA1        0.0000
     12 C3          1.3610    2.2550   -1.1720 C.3       1 ALA1        0.0000
     13 H3          1.6450    3.3270   -1.0230 H         1 ALA1        0.0000
     14 O3          1.8740    1.8650   -2.4490 O.3       1 ALA1        0.0000
     15 HO3         1.8260    0.8960   -2.5030 H         1 ALA1        0.0000
     16 C4         -0.1500    2.1670   -1.1120 C.3       1 ALA1        0.0000
     17 H4         -0.4950    2.6360   -0.1600 H         1 ALA1        0.0000
     18 O4         -0.7570    2.8790   -2.1810 O.3       1 ALA1        0.0000
     19 HO4        -0.1890    2.7820   -2.9570 H         1 ALA1        0.0000
     20 C6         -2.0940    0.5530   -0.9340 C.3       1 ALA1        0.0000
     21 H61        -2.6280    1.1050   -1.7410 H         1 ALA1        0.0000
     22 H62        -2.4200    0.9770    0.0420 H         1 ALA1        0.0000
     23 O6         -2.4790   -0.8200   -1.0030 O.3       1 ALA1        0.0000
     24 HO6        -1.9630   -1.3160   -0.3570 H         1 ALA1        0.0000
@<TRIPOS>BOND
     1   19   18 1 
     2   15   14 1 
     3   14   12 1 
     4   18   16 1 
     5    6    5 1 
     6   21   20 1 
     7    3    4 1 
     8    3    1 1 
     9   12   16 1 
    10   12   13 1 
    11   12    8 1 
    12   16    5 1 
    13   16   17 1 
    14    5   20 1 
    15    5    7 1 
    16   23   20 1 
    17   23   24 1 
    18   11   10 1 
    19   20   22 1 
    20    1    8 1 
    21    1    7 1 
    22    1    2 1 
    23   10    8 1 
    24    8    9 1 
