@<TRIPOS>MOLECULE
C:\Users\Praveer\PycharmProjects\pdb_to_mol2_converter\data\pdb\alalta.pdb
   22    22     0     0     0
SMALL
GASTEIGER

@<TRIPOS>ATOM
      1 C1          1.4970   -0.0020   -0.0210 C.3       1 ALA1        0.0000
      2 H1          1.9230   -0.5040    0.8800 H         1 ALA1        0.0000
      3 O1          1.9670   -0.6880   -1.1530 O.3       1 ALA1        0.0000
      4 HO1         1.6380   -1.5890   -1.0750 H         1 ALA1        0.0000
      5 C5         -0.5900    0.6390   -1.0310 C.3       1 ALA1        0.0000
      6 H5         -0.3830    0.0670   -1.9580 H         1 ALA1        0.0000
      7 O5          0.0780   -0.0240    0.0830 O.3       1 ALA1        0.0000
      8 C2          1.9380    1.4580   -0.0120 C.3       1 ALA1        0.0000
      9 H2          3.0530    1.4950   -0.0590 H         1 ALA1        0.0000
     10 O2          1.5480    2.0980    1.2060 O.3       1 ALA1        0.0000
     11 HO2         0.6160    1.8880    1.3670 H         1 ALA1        0.0000
     12 C3          1.3780    2.2120   -1.1990 C.3       1 ALA1        0.0000
     13 H3          1.6280    3.2960   -1.0960 H         1 ALA1        0.0000
     14 O3          2.0120    1.7750   -2.4000 O.3       1 ALA1        0.0000
     15 HO3         1.9650    0.8080   -2.4080 H         1 ALA1        0.0000
     16 C4         -0.1430    2.0950   -1.2140 C.3       1 ALA1        0.0000
     17 H4         -0.5300    2.6780   -0.3420 H         1 ALA1        0.0000
     18 O4         -0.7280    2.6620   -2.3830 O.3       1 ALA1        0.0000
     19 HO4        -1.5970    2.2060   -2.4660 H         1 ALA1        0.0000
     20 C6         -2.1190    0.6310   -0.8570 C.2       1 ALA1        0.0000
     21 O61        -2.7380    0.9900   -1.9000 O.co2     1 ALA1        0.0000
     22 O62        -2.5800    0.3230    0.2680 O.co2     1 ALA1        0.0000
@<TRIPOS>BOND
     1   19   18 1 
     2   15   14 1 
     3   14   12 1 
     4   18   16 1 
     5    6    5 1 
     6   21   20 ar
     7   16   12 1 
     8   16    5 1 
     9   16   17 1 
    10   12   13 1 
    11   12    8 1 
    12    3    4 1 
    13    3    1 1 
    14    5   20 1 
    15    5    7 1 
    16   20   22 ar
    17    9    8 1 
    18    1    8 1 
    19    1    7 1 
    20    1    2 1 
    21    8   10 1 
    22   10   11 1 
