@<TRIPOS>MOLECULE
C:\Users\Praveer\PycharmProjects\pdb_to_mol2_converter\data\pdb\alarb.pdb
   20    20     0     0     0
SMALL
GASTEIGER

@<TRIPOS>ATOM
      1 O4          1.4520    0.2270    0.4850 O.3       1 ALA1        0.0000
      2 C1          1.9470    1.4400   -0.0810 C.3       1 ALA1        0.0000
      3 H1          2.5990    1.9330    0.6740 H         1 ALA1        0.0000
      4 O1          2.7020    1.1410   -1.2190 O.3       1 ALA1        0.0000
      5 HO1         3.4380    0.6030   -0.9150 H         1 ALA1        0.0000
      6 C4          0.0610    0.0740    0.1350 C.3       1 ALA1        0.0000
      7 H4         -0.0600   -0.9200   -0.3540 H         1 ALA1        0.0000
      8 C5         -0.7100    0.0740    1.4350 C.3       1 ALA1        0.0000
      9 H51        -0.5340    1.0220    1.9900 H         1 ALA1        0.0000
     10 H52        -0.3440   -0.7650    2.0720 H         1 ALA1        0.0000
     11 O5         -2.1080   -0.0900    1.2110 O.3       1 ALA1        0.0000
     12 HO5        -2.5950    0.0570    2.0310 H         1 ALA1        0.0000
     13 C2          0.7250    2.3070   -0.4330 C.3       1 ALA1        0.0000
     14 H2          0.9510    3.0050   -1.2670 H         1 ALA1        0.0000
     15 O2          0.2670    3.0670    0.6690 O.3       1 ALA1        0.0000
     16 HO2        -0.4110    3.6870    0.3760 H         1 ALA1        0.0000
     17 C3         -0.2730    1.2190   -0.8270 C.3       1 ALA1        0.0000
     18 H3         -1.3270    1.5490   -0.7290 H         1 ALA1        0.0000
     19 O3         -0.0730    0.8320   -2.1660 O.3       1 ALA1        0.0000
     20 HO3         0.8660    0.6200   -2.2720 H         1 ALA1        0.0000
@<TRIPOS>BOND
     1   20   19 1 
     2   19   17 1 
     3   14   13 1 
     4    4    5 1 
     5    4    2 1 
     6   17   18 1 
     7   17   13 1 
     8   17    6 1 
     9   13    2 1 
    10   13   15 1 
    11    7    6 1 
    12    2    1 1 
    13    2    3 1 
    14    6    1 1 
    15    6    8 1 
    16   16   15 1 
    17   11    8 1 
    18   11   12 1 
    19    8    9 1 
    20    8   10 1 
