@<TRIPOS>MOLECULE
C:\Users\Praveer\PycharmProjects\pdb_to_mol2_converter\data\pdb\aleg.pdb
   44    44     0     0     0
SMALL
GASTEIGER

@<TRIPOS>ATOM
      1 C1          2.3360    1.3560   -0.1030 C.2       1 ALE1        0.0000
      2 O11         3.2570    1.5040    0.7560 O.co2     1 ALE1        0.0000
      3 O12         1.9080    2.2030   -0.9250 O.co2     1 ALE1        0.0000
      4 C2          1.5240    0.0110   -0.0110 C.3       1 ALE1        0.0000
      5 O2          1.8700   -0.6770    1.1590 O.3       1 ALE1        0.0000
      6 HO2         2.6310   -0.1380    1.4270 H         1 ALE1        0.0000
      7 C6          1.5970   -0.5570   -2.3850 C.3       1 ALE1        0.0000
      8 H6          2.0130    0.4370   -2.6570 H         1 ALE1        0.0000
      9 O6          1.9860   -0.8800   -1.0320 O.3       1 ALE1        0.0000
     10 C3          0.0100    0.1260   -0.0840 C.3       1 ALE1        0.0000
     11 H31        -0.3220    0.8950    0.6480 H         1 ALE1        0.0000
     12 H32        -0.4190   -0.8540    0.2400 H         1 ALE1        0.0000
     13 C4         -0.5010    0.4340   -1.4460 C.3       1 ALE1        0.0000
     14 H4         -0.2170    1.4740   -1.7400 H         1 ALE1        0.0000
     15 O4         -1.9180    0.3620   -1.4060 O.3       1 ALE1        0.0000
     16 HO4        -2.2270    1.0840   -0.8520 H         1 ALE1        0.0000
     17 C5          0.0540   -0.5130   -2.4880 C.3       1 ALE1        0.0000
     18 H5         -0.2910   -1.5400   -2.2140 H         1 ALE1        0.0000
     19 N51        -0.5750   -0.2030   -3.7660 N.am      1 ALE1        0.0000
     20 HN51       -1.4720   -0.6150   -3.8780 H         1 ALE1        0.0000
     21 C51        -0.2160    0.7710   -4.6190 C.2       1 ALE1        0.0000
     22 O51         0.8140    1.4170   -4.5260 O.2       1 ALE1        0.0000
     23 CT51       -1.1720    1.0300   -5.7520 C.3       1 ALE1        0.0000
     24 HT51       -2.1070    1.4780   -5.3580 H         1 ALE1        0.0000
     25 HT52       -1.4000    0.0850   -6.2850 H         1 ALE1        0.0000
     26 HT53       -0.7000    1.7430   -6.4620 H         1 ALE1        0.0000
     27 C7          2.3800   -1.6330   -3.1750 C.3       1 ALE1        0.0000
     28 H7          1.9990   -2.6250   -2.8190 H         1 ALE1        0.0000
     29 N71         3.7730   -1.5220   -2.7600 N.am      1 ALE1        0.0000
     30 HN71        4.0610   -0.6000   -2.5290 H         1 ALE1        0.0000
     31 C71         4.5760   -2.5460   -2.4410 C.2       1 ALE1        0.0000
     32 O71         4.2720   -3.7210   -2.6070 O.2       1 ALE1        0.0000
     33 CT71        5.9170   -2.1800   -1.8570 C.3       1 ALE1        0.0000
     34 HT71        5.9850   -1.0830   -1.7040 H         1 ALE1        0.0000
     35 HT72        6.7180   -2.5130   -2.5490 H         1 ALE1        0.0000
     36 HT73        6.0380   -2.6940   -0.8800 H         1 ALE1        0.0000
     37 C8          2.2200   -1.6140   -4.7070 C.3       1 ALE1        0.0000
     38 H8          2.2990   -0.5660   -5.0760 H         1 ALE1        0.0000
     39 O8          0.9780   -2.1800   -5.1070 O.3       1 ALE1        0.0000
     40 HO8         0.3220   -1.6190   -4.6800 H         1 ALE1        0.0000
     41 C9          3.2930   -2.4520   -5.4240 C.3       1 ALE1        0.0000
     42 H91         3.2930   -3.4920   -5.0320 H         1 ALE1        0.0000
     43 H92         4.3010   -2.0160   -5.2810 H         1 ALE1        0.0000
     44 H93         3.0870   -2.4900   -6.5140 H         1 ALE1        0.0000
@<TRIPOS>BOND
     1   44   41 1 
     2   26   23 1 
     3   25   23 1 
     4   23   24 1 
     5   23   21 1 
     6   41   43 1 
     7   41   42 1 
     8   41   37 1 
     9   39   37 1 
    10   39   40 1 
    11   38   37 1 
    12   37   27 1 
    13   21   22 2 
    14   21   19 am
    15   20   19 1 
    16   19   17 1 
    17   27   28 1 
    18   27   29 1 
    19   27    7 1 
    20   29   30 1 
    21   29   31 am
    22    8    7 1 
    23   32   31 2 
    24   35   33 1 
    25   17    7 1 
    26   17   18 1 
    27   17   13 1 
    28   31   33 1 
    29    7    9 1 
    30   33   34 1 
    31   33   36 1 
    32   14   13 1 
    33   13   15 1 
    34   13   10 1 
    35   15   16 1 
    36    9    4 1 
    37    3    1 ar
    38    1    4 1 
    39    1    2 ar
    40   10    4 1 
    41   10   12 1 
    42   10   11 1 
    43    4    5 1 
    44    5    6 1 
