@<TRIPOS>MOLECULE
C:\Users\Praveer\PycharmProjects\pdb_to_mol2_converter\data\pdb\alf4.pdb
    5     4     0     0     0
SMALL
GASTEIGER

@<TRIPOS>ATOM
      1 AL1         0.0000    0.0000    0.0000 Al        1 ALF1        0.0000
      2 F1          0.0000    0.0000    1.7260 F         1 ALF1        0.0000
      3 F2          1.6270    0.0000   -0.5750 F         1 ALF1        0.0000
      4 F3         -0.8140   -1.4090   -0.5750 F         1 ALF1        0.0000
      5 F4         -0.8140    1.4090   -0.5750 F         1 ALF1        0.0000
@<TRIPOS>BOND
     1    3    1 1 
     2    4    1 1 
     3    5    1 1 
     4    1    2 1 
