@<TRIPOS>MOLECULE
C:\Users\Praveer\PycharmProjects\pdb_to_mol2_converter\data\pdb\alfru.pdb
   24    24     0     0     0
SMALL
GASTEIGER

@<TRIPOS>ATOM
      1 O5          1.3950   -0.0010    0.2990 O.3       1 ALF1        0.0000
      2 C2          1.9440    1.2930    0.0380 C.3       1 ALF1        0.0000
      3 O2          2.2910    1.4460   -1.3070 O.3       1 ALF1        0.0000
      4 HO2         3.2260    1.2040   -1.3190 H         1 ALF1        0.0000
      5 C5         -0.0250    0.0300    0.0630 C.3       1 ALF1        0.0000
      6 H5         -0.2240   -0.5410   -0.8730 H         1 ALF1        0.0000
      7 C6         -0.7130   -0.6500    1.2230 C.3       1 ALF1        0.0000
      8 H61        -1.8170   -0.5860    1.1000 H         1 ALF1        0.0000
      9 H62        -0.4410   -0.1420    2.1770 H         1 ALF1        0.0000
     10 O6         -0.3490   -2.0270    1.3050 O.3       1 ALF1        0.0000
     11 HO6         0.6120   -2.0890    1.3470 H         1 ALF1        0.0000
     12 C1          3.1910    1.3920    0.9180 C.3       1 ALF1        0.0000
     13 H11         2.9560    1.0250    1.9430 H         1 ALF1        0.0000
     14 H12         3.4570    2.4690    1.0100 H         1 ALF1        0.0000
     15 O1          4.3480    0.7010    0.4100 O.3       1 ALF1        0.0000
     16 HO1         4.2400   -0.2510    0.5330 H         1 ALF1        0.0000
     17 C3          0.8160    2.2770    0.4300 C.3       1 ALF1        0.0000
     18 H3          0.9540    3.2680   -0.0510 H         1 ALF1        0.0000
     19 O3          0.7010    2.4610    1.8310 O.3       1 ALF1        0.0000
     20 HO3         0.1890    3.2550    2.0230 H         1 ALF1        0.0000
     21 C4         -0.3930    1.5090   -0.1030 C.3       1 ALF1        0.0000
     22 H4         -1.3080    1.7440    0.4850 H         1 ALF1        0.0000
     23 O4         -0.6790    1.8800   -1.4280 O.3       1 ALF1        0.0000
     24 HO4         0.1200    1.7360   -1.9570 H         1 ALF1        0.0000
@<TRIPOS>BOND
     1   24   23 1 
     2   23   21 1 
     3    4    3 1 
     4    3    2 1 
     5    6    5 1 
     6   21    5 1 
     7   21   17 1 
     8   21   22 1 
     9   18   17 1 
    10    2    1 1 
    11    2   17 1 
    12    2   12 1 
    13    5    1 1 
    14    5    7 1 
    15   15   16 1 
    16   15   12 1 
    17   17   19 1 
    18   12   14 1 
    19   12   13 1 
    20    8    7 1 
    21    7   10 1 
    22    7    9 1 
    23   10   11 1 
    24   19   20 1 
