@<TRIPOS>MOLECULE
C:\Users\Praveer\PycharmProjects\pdb_to_mol2_converter\data\pdb\algana.pdb
   30    30     0     0     0
SMALL
GASTEIGER

@<TRIPOS>ATOM
      1 C1          1.4290    0.0030   -0.0030 C.3       1 ALG1        0.0000
      2 H1          1.7680   -0.5050    0.9300 H         1 ALG1        0.0000
      3 O1          1.9640   -0.6880   -1.0970 O.3       1 ALG1        0.0000
      4 HO1         1.8150   -1.6240   -0.9460 H         1 ALG1        0.0000
      5 C5         -0.5610    0.6450   -1.1670 C.3       1 ALG1        0.0000
      6 H5         -0.1800    0.1540   -2.0960 H         1 ALG1        0.0000
      7 O5         -0.0030    0.0010   -0.0020 O.3       1 ALG1        0.0000
      8 C2          1.9480    1.4350   -0.0050 C.3       1 ALG1        0.0000
      9 H2          1.5520    1.9170    0.9230 H         1 ALG1        0.0000
     10 N           3.3950    1.5690    0.0650 N.am      1 ALG1        0.0000
     11 HN          3.8200    2.0250   -0.7090 H         1 ALG1        0.0000
     12 C           4.1270    1.1690    1.1090 C.2       1 ALG1        0.0000
     13 O           3.6300    0.6500    2.0990 O.2       1 ALG1        0.0000
     14 CT          5.6120    1.3970    1.0110 C.3       1 ALG1        0.0000
     15 HT1         5.8200    2.4800    0.8900 H         1 ALG1        0.0000
     16 HT2         6.0230    0.8380    0.1460 H         1 ALG1        0.0000
     17 HT3         6.0970    1.0350    1.9420 H         1 ALG1        0.0000
     18 C3          1.3760    2.1880   -1.1860 C.3       1 ALG1        0.0000
     19 H3          1.7630    1.7160   -2.1210 H         1 ALG1        0.0000
     20 O3          1.8210    3.5380   -1.1880 O.3       1 ALG1        0.0000
     21 HO3         1.2150    4.0410   -0.6280 H         1 ALG1        0.0000
     22 C4         -0.1370    2.1050   -1.1920 C.3       1 ALG1        0.0000
     23 H4         -0.5110    2.5710   -2.1350 H         1 ALG1        0.0000
     24 O4         -0.7140    2.8190   -0.1010 O.3       1 ALG1        0.0000
     25 HO4        -0.6790    2.2630    0.6870 H         1 ALG1        0.0000
     26 C6         -2.0650    0.4620   -1.1440 C.3       1 ALG1        0.0000
     27 H61        -2.5240    1.0360   -1.9800 H         1 ALG1        0.0000
     28 H62        -2.4940    0.8480   -0.1920 H         1 ALG1        0.0000
     29 O6         -2.4200   -0.9120   -1.2970 O.3       1 ALG1        0.0000
     30 HO6        -2.0880   -1.4090   -0.5410 H         1 ALG1        0.0000
@<TRIPOS>BOND
     1   23   22 1 
     2   19   18 1 
     3    6    5 1 
     4   27   26 1 
     5   29   26 1 
     6   29   30 1 
     7   22   18 1 
     8   22    5 1 
     9   22   24 1 
    10   20   18 1 
    11   20   21 1 
    12   18    8 1 
    13    5   26 1 
    14    5    7 1 
    15   26   28 1 
    16    3    4 1 
    17    3    1 1 
    18   11   10 1 
    19   24   25 1 
    20    8    1 1 
    21    8   10 1 
    22    8    9 1 
    23    1    7 1 
    24    1    2 1 
    25   10   12 am
    26   16   14 1 
    27   15   14 1 
    28   14   12 1 
    29   14   17 1 
    30   12   13 2 
