@<TRIPOS>MOLECULE
C:\Users\Praveer\PycharmProjects\pdb_to_mol2_converter\data\pdb\algal.pdb
   24    24     0     0     0
SMALL
GASTEIGER

@<TRIPOS>ATOM
      1 C1          1.4340   -0.0390    0.0040 C.3       1 ALG1        0.0000
      2 H1          1.7890   -0.6000    0.9000 H         1 ALG1        0.0000
      3 O1          1.9420   -0.6870   -1.1320 O.3       1 ALG1        0.0000
      4 HO1         2.9000   -0.6130   -1.0730 H         1 ALG1        0.0000
      5 C5         -0.5690    0.7180   -1.0550 C.3       1 ALG1        0.0000
      6 H5         -0.2220    0.2590   -2.0140 H         1 ALG1        0.0000
      7 O5          0.0020    0.0110    0.0640 O.3       1 ALG1        0.0000
      8 C2          1.9790    1.3830    0.0770 C.3       1 ALG1        0.0000
      9 H2          1.6500    1.8130    1.0530 H         1 ALG1        0.0000
     10 O2          3.4090    1.4240    0.0600 O.3       1 ALG1        0.0000
     11 HO2         3.6600    2.3250   -0.1930 H         1 ALG1        0.0000
     12 C3          1.4000    2.2350   -1.0390 C.3       1 ALG1        0.0000
     13 H3          1.7560    1.8200   -2.0130 H         1 ALG1        0.0000
     14 O3          1.8610    3.5830   -0.9630 O.3       1 ALG1        0.0000
     15 HO3         1.2090    4.0810   -0.4500 H         1 ALG1        0.0000
     16 C4         -0.1140    2.1700   -1.0230 C.3       1 ALG1        0.0000
     17 H4         -0.4970    2.6850   -1.9380 H         1 ALG1        0.0000
     18 O4         -0.6570    2.8450    0.1090 O.3       1 ALG1        0.0000
     19 HO4        -0.6870    2.2320    0.8530 H         1 ALG1        0.0000
     20 C6         -2.0740    0.5620   -0.9930 C.3       1 ALG1        0.0000
     21 H61        -2.5520    1.1900   -1.7780 H         1 ALG1        0.0000
     22 H62        -2.4620    0.8980   -0.0050 H         1 ALG1        0.0000
     23 O6         -2.4610   -0.7940   -1.2080 O.3       1 ALG1        0.0000
     24 HO6        -2.0040   -1.3550   -0.5700 H         1 ALG1        0.0000
@<TRIPOS>BOND
     1    6    5 1 
     2   13   12 1 
     3   17   16 1 
     4   21   20 1 
     5   23   20 1 
     6   23   24 1 
     7    3    4 1 
     8    3    1 1 
     9    5   16 1 
    10    5   20 1 
    11    5    7 1 
    12   12   16 1 
    13   12   14 1 
    14   12    8 1 
    15   16   18 1 
    16   20   22 1 
    17   14   15 1 
    18   11   10 1 
    19    1    7 1 
    20    1    8 1 
    21    1    2 1 
    22   10    8 1 
    23    8    9 1 
    24   18   19 1 
