@<TRIPOS>MOLECULE
C:\Users\Praveer\PycharmProjects\pdb_to_mol2_converter\data\pdb\algalf.pdb
   24    24     0     0     0
SMALL
GASTEIGER

@<TRIPOS>ATOM
      1 O4          1.4750    0.2550   -0.5650 O.3       1 ALG1        0.0000
      2 C1          2.0330    1.4000    0.0680 C.3       1 ALG1        0.0000
      3 H1          2.3140    1.1150    1.1060 H         1 ALG1        0.0000
      4 O1          3.1500    1.8200   -0.6550 O.3       1 ALG1        0.0000
      5 HO1         3.6420    1.0190   -0.8590 H         1 ALG1        0.0000
      6 C4          0.0860    0.1650   -0.2010 C.3       1 ALG1        0.0000
      7 H4          0.0310   -0.6110    0.6000 H         1 ALG1        0.0000
      8 C2          0.8830    2.4350    0.0590 C.3       1 ALG1        0.0000
      9 H2          1.0490    3.2100    0.8370 H         1 ALG1        0.0000
     10 O2          0.7220    3.0930   -1.1860 O.3       1 ALG1        0.0000
     11 HO2         1.6160    3.3010   -1.4960 H         1 ALG1        0.0000
     12 C3         -0.3190    1.5380    0.3720 C.3       1 ALG1        0.0000
     13 H3         -1.2560    1.9320   -0.0720 H         1 ALG1        0.0000
     14 O3         -0.5020    1.4630    1.7680 O.3       1 ALG1        0.0000
     15 HO3        -1.4170    1.2330    1.9650 H         1 ALG1        0.0000
     16 C5         -0.7050   -0.3710   -1.3830 C.3       1 ALG1        0.0000
     17 H5         -0.3110   -1.3990   -1.5860 H         1 ALG1        0.0000
     18 O5         -2.0900   -0.5050   -1.0640 O.3       1 ALG1        0.0000
     19 HO5        -2.4890    0.2590   -1.5060 H         1 ALG1        0.0000
     20 C6         -0.5740    0.4160   -2.6780 C.3       1 ALG1        0.0000
     21 H61        -1.0390   -0.1650   -3.5060 H         1 ALG1        0.0000
     22 H62         0.5010    0.5650   -2.9290 H         1 ALG1        0.0000
     23 O6         -1.2300    1.6890   -2.6080 O.3       1 ALG1        0.0000
     24 HO6        -0.5900    2.3110   -2.2130 H         1 ALG1        0.0000
@<TRIPOS>BOND
     1   21   20 1 
     2   22   20 1 
     3   20   23 1 
     4   20   16 1 
     5   23   24 1 
     6   17   16 1 
     7   19   18 1 
     8   11   10 1 
     9   16   18 1 
    10   16    6 1 
    11   10    8 1 
    12    5    4 1 
    13    4    2 1 
    14    1    6 1 
    15    1    2 1 
    16    6   12 1 
    17    6    7 1 
    18   13   12 1 
    19    8    2 1 
    20    8   12 1 
    21    8    9 1 
    22    2    3 1 
    23   12   14 1 
    24   14   15 1 
