@<TRIPOS>MOLECULE
C:\Users\Praveer\PycharmProjects\pdb_to_mol2_converter\data\pdb\alglna.pdb
   30    30     0     0     0
SMALL
GASTEIGER

@<TRIPOS>ATOM
      1 C1          1.3090   -0.0740   -0.0820 C.3       1 ALG1        0.0000
      2 H1          1.6750   -0.6260    0.8170 H         1 ALG1        0.0000
      3 O1          1.8230   -0.7070   -1.2180 O.3       1 ALG1        0.0000
      4 HO1         1.5120   -1.6170   -1.2030 H         1 ALG1        0.0000
      5 C5         -0.7140    0.6570   -1.1340 C.3       1 ALG1        0.0000
      6 H5         -0.3990    0.2050   -2.1060 H         1 ALG1        0.0000
      7 O5         -0.1170   -0.0600   -0.0340 O.3       1 ALG1        0.0000
      8 C2          1.8500    1.3420   -0.0210 C.3       1 ALG1        0.0000
      9 H2          1.4830    1.7560    0.9540 H         1 ALG1        0.0000
     10 N           3.3080    1.3610    0.0010 N.am      1 ALG1        0.0000
     11 HN          3.7530    0.6120   -0.4820 H         1 ALG1        0.0000
     12 C           4.0300    2.3240    0.5830 C.2       1 ALG1        0.0000
     13 O           3.5000    3.2920    1.1110 O.2       1 ALG1        0.0000
     14 CT          5.5270    2.1730    0.5430 C.3       1 ALG1        0.0000
     15 HT1         5.8990    2.3980   -0.4780 H         1 ALG1        0.0000
     16 HT2         5.8160    1.1420    0.8310 H         1 ALG1        0.0000
     17 HT3         5.9830    2.8910    1.2580 H         1 ALG1        0.0000
     18 C3          1.2500    2.1900   -1.1240 C.3       1 ALG1        0.0000
     19 H3          1.6120    1.8000   -2.1070 H         1 ALG1        0.0000
     20 O3          1.6720    3.5480   -1.0150 O.3       1 ALG1        0.0000
     21 HO3         2.2790    3.6350   -0.2580 H         1 ALG1        0.0000
     22 C4         -0.2610    2.1060   -1.0940 C.3       1 ALG1        0.0000
     23 H4         -0.6220    2.5580   -0.1380 H         1 ALG1        0.0000
     24 O4         -0.8330    2.8420   -2.1670 O.3       1 ALG1        0.0000
     25 HO4        -0.3180    3.6560   -2.2450 H         1 ALG1        0.0000
     26 C6         -2.2180    0.5100   -1.0220 C.3       1 ALG1        0.0000
     27 H61        -2.7130    1.0310   -1.8740 H         1 ALG1        0.0000
     28 H62        -2.5760    0.9810   -0.0800 H         1 ALG1        0.0000
     29 O6         -2.6140   -0.8620   -1.0420 O.3       1 ALG1        0.0000
     30 HO6        -2.2120   -1.3080   -0.2880 H         1 ALG1        0.0000
@<TRIPOS>BOND
     1   25   24 1 
     2   24   22 1 
     3   19   18 1 
     4    6    5 1 
     5   27   26 1 
     6    3    4 1 
     7    3    1 1 
     8    5   22 1 
     9    5   26 1 
    10    5    7 1 
    11   18   22 1 
    12   18   20 1 
    13   18    8 1 
    14   22   23 1 
    15   29   26 1 
    16   29   30 1 
    17   26   28 1 
    18   20   21 1 
    19   11   10 1 
    20   15   14 1 
    21    1    7 1 
    22    1    8 1 
    23    1    2 1 
    24    8   10 1 
    25    8    9 1 
    26   10   12 am
    27   14   12 1 
    28   14   16 1 
    29   14   17 1 
    30   12   13 2 
