@<TRIPOS>MOLECULE
C:\Users\Praveer\PycharmProjects\pdb_to_mol2_converter\data\pdb\alglc.pdb
   24    24     0     0     0
SMALL
GASTEIGER

@<TRIPOS>ATOM
      1 C1          1.4660    0.0070   -0.0670 C.3       1 ALG1        0.0000
      2 H1          1.8510   -0.5150    0.8410 H         1 ALG1        0.0000
      3 O1          1.9540   -0.6670   -1.1980 O.3       1 ALG1        0.0000
      4 HO1         1.6780   -1.5860   -1.1240 H         1 ALG1        0.0000
      5 C5         -0.5800    0.7180   -1.1000 C.3       1 ALG1        0.0000
      6 H5         -0.2690    0.2620   -2.0710 H         1 ALG1        0.0000
      7 O5          0.0380    0.0120   -0.0010 O.3       1 ALG1        0.0000
      8 C2          1.9830    1.4410   -0.0450 C.3       1 ALG1        0.0000
      9 H2          1.6550    1.8900    0.9240 H         1 ALG1        0.0000
     10 O2          3.4140    1.5130   -0.0710 O.3       1 ALG1        0.0000
     11 HO2         3.7300    0.9060   -0.7540 H         1 ALG1        0.0000
     12 C3          1.3650    2.2600   -1.1600 C.3       1 ALG1        0.0000
     13 H3          1.6910    1.8330   -2.1400 H         1 ALG1        0.0000
     14 O3          1.8090    3.6160   -1.1100 O.3       1 ALG1        0.0000
     15 HO3         2.7430    3.6000   -0.8600 H         1 ALG1        0.0000
     16 C4         -0.1430    2.1750   -1.0790 C.3       1 ALG1        0.0000
     17 H4         -0.4770    2.6300   -0.1160 H         1 ALG1        0.0000
     18 O4         -0.7520    2.8980   -2.1400 O.3       1 ALG1        0.0000
     19 HO4        -0.2740    3.7360   -2.2140 H         1 ALG1        0.0000
     20 C6         -2.0810    0.5500   -0.9760 C.3       1 ALG1        0.0000
     21 H61        -2.5910    1.0660   -1.8210 H         1 ALG1        0.0000
     22 H62        -2.4400    1.0130   -0.0290 H         1 ALG1        0.0000
     23 O6         -2.4580   -0.8280   -0.9980 O.3       1 ALG1        0.0000
     24 HO6        -2.0430   -1.2720   -0.2520 H         1 ALG1        0.0000
@<TRIPOS>BOND
     1   19   18 1 
     2   13   12 1 
     3   18   16 1 
     4    6    5 1 
     5   21   20 1 
     6    3    4 1 
     7    3    1 1 
     8   12   14 1 
     9   12   16 1 
    10   12    8 1 
    11   14   15 1 
    12    5   16 1 
    13    5   20 1 
    14    5    7 1 
    15   16   17 1 
    16   23   20 1 
    17   23   24 1 
    18   20   22 1 
    19   11   10 1 
    20   10    8 1 
    21    1    8 1 
    22    1    7 1 
    23    1    2 1 
    24    8    9 1 
