@<TRIPOS>MOLECULE
C:\Users\Praveer\PycharmProjects\pdb_to_mol2_converter\data\pdb\alglaa.pdb
   28    28     0     0     0
SMALL
GASTEIGER

@<TRIPOS>ATOM
      1 C1          1.3720   -0.1650   -0.2390 C.3       1 ALG1        0.0000
      2 H1          1.8170   -0.7550    0.5950 H         1 ALG1        0.0000
      3 O1          1.6950   -0.8000   -1.4440 O.3       1 ALG1        0.0000
      4 HO1         2.6010   -0.5500   -1.6870 H         1 ALG1        0.0000
      5 C5         -0.7200    0.7130   -1.0140 C.3       1 ALG1        0.0000
      6 H5         -0.5620    0.2560   -2.0140 H         1 ALG1        0.0000
      7 O5         -0.0380   -0.0890   -0.0080 O.3       1 ALG1        0.0000
      8 C2          1.9570    1.2420   -0.2020 C.3       1 ALG1        0.0000
      9 H2          1.6250    1.6600    0.7810 H         1 ALG1        0.0000
     10 N           3.4140    1.3420   -0.1180 N.am      1 ALG1        0.0000
     11 HN          3.7500    1.8050    0.6940 H         1 ALG1        0.0000
     12 C           4.2900    1.0150   -1.0720 C.2       1 ALG1        0.0000
     13 O           3.9650    0.4790   -2.1240 O.2       1 ALG1        0.0000
     14 CT          5.7330    1.3370   -0.7890 C.3       1 ALG1        0.0000
     15 HT1         6.0830    0.7780    0.1020 H         1 ALG1        0.0000
     16 HT2         5.8520    2.4260   -0.6160 H         1 ALG1        0.0000
     17 HT3         6.3460    1.0390   -1.6660 H         1 ALG1        0.0000
     18 C3          1.3120    2.1050   -1.2680 C.3       1 ALG1        0.0000
     19 H3          1.4880    1.6290   -2.2620 H         1 ALG1        0.0000
     20 O3          1.9180    3.3990   -1.3160 O.3       1 ALG1        0.0000
     21 HO3         2.2050    3.5840   -2.2120 H         1 ALG1        0.0000
     22 C4         -0.1920    2.1530   -1.0310 C.3       1 ALG1        0.0000
     23 H4         -0.6710    2.7030   -1.8740 H         1 ALG1        0.0000
     24 O4         -0.5300    2.8340    0.1770 O.3       1 ALG1        0.0000
     25 HO4        -1.3590    2.3890    0.4760 H         1 ALG1        0.0000
     26 C6         -2.2390    0.7510   -0.7720 C.2       1 ALG1        0.0000
     27 O61        -2.9410    0.4150   -1.7620 O.co2     1 ALG1        0.0000
     28 O62        -2.6040    1.2040    0.3470 O.co2     1 ALG1        0.0000
@<TRIPOS>BOND
     1   19   18 1 
     2   21   20 1 
     3   13   12 2 
     4    6    5 1 
     5   23   22 1 
     6   27   26 ar
     7    4    3 1 
     8   17   14 1 
     9    3    1 1 
    10   20   18 1 
    11   18   22 1 
    12   18    8 1 
    13   12   14 1 
    14   12   10 am
    15   22    5 1 
    16   22   24 1 
    17    5   26 1 
    18    5    7 1 
    19   14   16 1 
    20   14   15 1 
    21   26   28 ar
    22    1    8 1 
    23    1    7 1 
    24    1    2 1 
    25    8   10 1 
    26    8    9 1 
    27   10   11 1 
    28   24   25 1 
