@<TRIPOS>MOLECULE
C:\Users\Praveer\PycharmProjects\pdb_to_mol2_converter\data\pdb\algul.pdb
   24    24     0     0     0
SMALL
GASTEIGER

@<TRIPOS>ATOM
      1 C1          1.4630    0.0040   -0.0430 C.3       1 ALG1        0.0000
      2 H1          1.8440   -0.5100    0.8710 H         1 ALG1        0.0000
      3 O1          1.9320   -0.7110   -1.1600 O.3       1 ALG1        0.0000
      4 HO1         2.8750   -0.8490   -1.0270 H         1 ALG1        0.0000
      5 C5         -0.5860    0.7190   -1.0560 C.3       1 ALG1        0.0000
      6 H5         -0.2730    0.2420   -2.0160 H         1 ALG1        0.0000
      7 O5          0.0330    0.0430    0.0580 O.3       1 ALG1        0.0000
      8 C2          2.0060    1.4350   -0.0490 C.3       1 ALG1        0.0000
      9 H2          1.7270    1.8900    0.9310 H         1 ALG1        0.0000
     10 O2          3.4340    1.4870   -0.1330 O.3       1 ALG1        0.0000
     11 HO2         3.6640    1.7550   -1.0340 H         1 ALG1        0.0000
     12 C3          1.3610    2.2580   -1.1500 C.3       1 ALG1        0.0000
     13 H3          1.6600    3.3280   -1.0160 H         1 ALG1        0.0000
     14 O3          1.8230    1.8640   -2.4410 O.3       1 ALG1        0.0000
     15 HO3         1.7590    0.8980   -2.5040 H         1 ALG1        0.0000
     16 C4         -0.1450    2.1750   -1.0660 C.3       1 ALG1        0.0000
     17 H4         -0.5870    2.6880   -1.9540 H         1 ALG1        0.0000
     18 O4         -0.6200    2.8490    0.0930 O.3       1 ALG1        0.0000
     19 HO4        -0.6030    2.2410    0.8410 H         1 ALG1        0.0000
     20 C6         -2.0860    0.5510   -0.9380 C.3       1 ALG1        0.0000
     21 H61        -2.5960    1.1660   -1.7140 H         1 ALG1        0.0000
     22 H62        -2.4440    0.8950    0.0580 H         1 ALG1        0.0000
     23 O6         -2.4670   -0.8110   -1.1280 O.3       1 ALG1        0.0000
     24 HO6        -1.9980   -1.3600   -0.4890 H         1 ALG1        0.0000
@<TRIPOS>BOND
     1   15   14 1 
     2   14   12 1 
     3    6    5 1 
     4   17   16 1 
     5   21   20 1 
     6    3    4 1 
     7    3    1 1 
     8   12   16 1 
     9   12   13 1 
    10   12    8 1 
    11   23   20 1 
    12   23   24 1 
    13   16    5 1 
    14   16   18 1 
    15    5   20 1 
    16    5    7 1 
    17   11   10 1 
    18   20   22 1 
    19   10    8 1 
    20    8    1 1 
    21    8    9 1 
    22    1    7 1 
    23    1    2 1 
    24   18   19 1 
