@<TRIPOS>MOLECULE
C:\Users\Praveer\PycharmProjects\pdb_to_mol2_converter\data\pdb\algula.pdb
   22    22     0     0     0
SMALL
GASTEIGER

@<TRIPOS>ATOM
      1 C1          1.4830   -0.0600   -0.0570 C.3       1 ALG1        0.0000
      2 H1          1.8840   -0.5720    0.8490 H         1 ALG1        0.0000
      3 O1          1.9380   -0.7550   -1.1920 O.3       1 ALG1        0.0000
      4 HO1         1.6070   -1.6520   -1.0890 H         1 ALG1        0.0000
      5 C5         -0.5740    0.6460   -1.0630 C.3       1 ALG1        0.0000
      6 H5         -0.3010    0.1820   -2.0340 H         1 ALG1        0.0000
      7 O5          0.0600   -0.0890    0.0190 O.3       1 ALG1        0.0000
      8 C2          1.9810    1.3890   -0.0380 C.3       1 ALG1        0.0000
      9 H2          1.6400    1.8270    0.9310 H         1 ALG1        0.0000
     10 O2          3.4090    1.4890   -0.0520 O.3       1 ALG1        0.0000
     11 HO2         3.6870    1.3380   -0.9640 H         1 ALG1        0.0000
     12 C3          1.3550    2.2000   -1.1590 C.3       1 ALG1        0.0000
     13 H3          1.6550    3.2700   -1.0340 H         1 ALG1        0.0000
     14 O3          1.8310    1.7830   -2.4390 O.3       1 ALG1        0.0000
     15 HO3         1.8100    0.8130   -2.4400 H         1 ALG1        0.0000
     16 C4         -0.1500    2.1180   -1.0770 C.3       1 ALG1        0.0000
     17 H4         -0.6030    2.6200   -1.9650 H         1 ALG1        0.0000
     18 O4         -0.6010    2.8020    0.0870 O.3       1 ALG1        0.0000
     19 HO4        -1.4390    2.3360    0.3220 H         1 ALG1        0.0000
     20 C6         -2.1020    0.5520   -0.9450 C.2       1 ALG1        0.0000
     21 O61        -2.6750    0.0020   -1.9200 O.co2     1 ALG1        0.0000
     22 O62        -2.6040    1.0920    0.0780 O.co2     1 ALG1        0.0000
@<TRIPOS>BOND
     1   15   14 1 
     2   14   12 1 
     3    6    5 1 
     4   17   16 1 
     5   21   20 ar
     6    3    4 1 
     7    3    1 1 
     8   12   16 1 
     9   12   13 1 
    10   12    8 1 
    11   16    5 1 
    12   16   18 1 
    13    5   20 1 
    14    5    7 1 
    15   11   10 1 
    16   20   22 ar
    17    1    8 1 
    18    1    7 1 
    19    1    2 1 
    20   10    8 1 
    21    8    9 1 
    22   18   19 1 
