@<TRIPOS>MOLECULE
C:\Users\Praveer\PycharmProjects\pdb_to_mol2_converter\data\pdb\alguna.pdb
   30    30     0     0     0
SMALL
GASTEIGER

@<TRIPOS>ATOM
      1 C1          1.4250   -0.0640   -0.0560 C.3       1 ALG1        0.0000
      2 H1          1.7370   -0.6570    0.8360 H         1 ALG1        0.0000
      3 O1          1.9120   -0.7310   -1.1830 O.3       1 ALG1        0.0000
      4 HO1         1.8330   -0.0970   -1.9110 H         1 ALG1        0.0000
      5 C5         -0.5340    0.8580   -1.0790 C.3       1 ALG1        0.0000
      6 H5         -0.2340    0.4170   -2.0610 H         1 ALG1        0.0000
      7 O5         -0.0000    0.0670    0.0000 O.3       1 ALG1        0.0000
      8 C2          2.0880    1.3010    0.0190 C.3       1 ALG1        0.0000
      9 H2          1.7990    1.7220    1.0160 H         1 ALG1        0.0000
     10 N           3.5410    1.2140    0.0100 N.am      1 ALG1        0.0000
     11 HN          3.9210    0.3680   -0.3520 H         1 ALG1        0.0000
     12 C           4.3420    2.2040    0.4150 C.2       1 ALG1        0.0000
     13 O           3.9060    3.2660    0.8350 O.2       1 ALG1        0.0000
     14 CT          5.8240    1.9500    0.3230 C.3       1 ALG1        0.0000
     15 HT1         6.1260    1.8580   -0.7400 H         1 ALG1        0.0000
     16 HT2         6.0840    1.0190    0.8670 H         1 ALG1        0.0000
     17 HT3         6.3670    2.8030    0.7830 H         1 ALG1        0.0000
     18 C3          1.5300    2.2370   -1.0380 C.3       1 ALG1        0.0000
     19 H3          1.9100    3.2690   -0.8400 H         1 ALG1        0.0000
     20 O3          1.9720    1.8560   -2.3390 O.3       1 ALG1        0.0000
     21 HO3         2.6000    2.5130   -2.6630 H         1 ALG1        0.0000
     22 C4          0.0200    2.2720   -0.9910 C.3       1 ALG1        0.0000
     23 H4         -0.3570    2.8630   -1.8610 H         1 ALG1        0.0000
     24 O4         -0.4380    2.9250    0.1860 O.3       1 ALG1        0.0000
     25 HO4        -0.3970    2.3100    0.9270 H         1 ALG1        0.0000
     26 C6         -2.0450    0.8020   -1.0010 C.3       1 ALG1        0.0000
     27 H61        -2.4870    1.5000   -1.7480 H         1 ALG1        0.0000
     28 H62        -2.3970    1.1140    0.0070 H         1 ALG1        0.0000
     29 O6         -2.5220   -0.5140   -1.2800 O.3       1 ALG1        0.0000
     30 HO6        -2.1060   -1.1320   -0.6680 H         1 ALG1        0.0000
@<TRIPOS>BOND
     1   21   20 1 
     2   20   18 1 
     3    6    5 1 
     4    4    3 1 
     5   23   22 1 
     6   27   26 1 
     7   29   26 1 
     8   29   30 1 
     9    3    1 1 
    10    5   26 1 
    11    5   22 1 
    12    5    7 1 
    13   18   22 1 
    14   18   19 1 
    15   18    8 1 
    16   26   28 1 
    17   22   24 1 
    18   15   14 1 
    19   11   10 1 
    20    1    7 1 
    21    1    8 1 
    22    1    2 1 
    23   10    8 1 
    24   10   12 am
    25    8    9 1 
    26   24   25 1 
    27   14   12 1 
    28   14   17 1 
    29   14   16 1 
    30   12   13 2 
