@<TRIPOS>MOLECULE
C:\Users\Praveer\PycharmProjects\pdb_to_mol2_converter\data\pdb\alidna.pdb
   30    30     0     0     0
SMALL
GASTEIGER

@<TRIPOS>ATOM
      1 C1          1.5000   -0.0270    0.0770 C.3       1 ALI1        0.0000
      2 H1          1.9280   -0.5610   -0.8040 H         1 ALI1        0.0000
      3 O1          1.9380   -0.6890    1.2350 O.3       1 ALI1        0.0000
      4 HO1         1.7300   -1.6220    1.1270 H         1 ALI1        0.0000
      5 C5         -0.5790    0.6950    1.0110 C.3       1 ALI1        0.0000
      6 H5         -0.3140    0.2230    1.9880 H         1 ALI1        0.0000
      7 O5          0.0780   -0.0210   -0.0590 O.3       1 ALI1        0.0000
      8 C2          2.0240    1.4000    0.0550 C.3       1 ALI1        0.0000
      9 H2          3.1230    1.3450    0.2730 H         1 ALI1        0.0000
     10 N           1.8730    2.0040   -1.2610 N.am      1 ALI1        0.0000
     11 HN          1.0180    1.8040   -1.7300 H         1 ALI1        0.0000
     12 C           2.7250    2.8980   -1.7760 C.2       1 ALI1        0.0000
     13 O           3.7410    3.2520   -1.1940 O.2       1 ALI1        0.0000
     14 CT          2.3680    3.4640   -3.1240 C.3       1 ALI1        0.0000
     15 HT1         1.3420    3.8850   -3.1000 H         1 ALI1        0.0000
     16 HT2         2.4290    2.6680   -3.8940 H         1 ALI1        0.0000
     17 HT3         3.0850    4.2730   -3.3780 H         1 ALI1        0.0000
     18 C3          1.3720    2.2370    1.1370 C.3       1 ALI1        0.0000
     19 H3          1.6890    3.3010    1.0060 H         1 ALI1        0.0000
     20 O3          1.8250    1.8390    2.4250 O.3       1 ALI1        0.0000
     21 HO3         1.9850    0.8810    2.3970 H         1 ALI1        0.0000
     22 C4         -0.1400    2.1580    1.0680 C.3       1 ALI1        0.0000
     23 H4         -0.5690    2.6070    1.9960 H         1 ALI1        0.0000
     24 O4         -0.6620    2.9000   -0.0340 O.3       1 ALI1        0.0000
     25 HO4        -0.8300    3.8100    0.2330 H         1 ALI1        0.0000
     26 C6         -2.0740    0.5370    0.8340 C.3       1 ALI1        0.0000
     27 H61        -2.3810    0.8900   -0.1770 H         1 ALI1        0.0000
     28 H62        -2.6110    1.1510    1.5910 H         1 ALI1        0.0000
     29 O6         -2.4780   -0.8220    1.0040 O.3       1 ALI1        0.0000
     30 HO6        -2.0870   -1.3480    0.2980 H         1 ALI1        0.0000
@<TRIPOS>BOND
     1   16   14 1 
     2   17   14 1 
     3   14   15 1 
     4   14   12 1 
     5   12   10 am
     6   12   13 2 
     7   11   10 1 
     8   10    8 1 
     9    2    1 1 
    10   27   26 1 
    11    7    1 1 
    12    7    5 1 
    13   24   25 1 
    14   24   22 1 
    15    8    1 1 
    16    8    9 1 
    17    8   18 1 
    18    1    3 1 
    19   30   29 1 
    20   26   29 1 
    21   26    5 1 
    22   26   28 1 
    23   19   18 1 
    24    5   22 1 
    25    5    6 1 
    26   22   18 1 
    27   22   23 1 
    28    4    3 1 
    29   18   20 1 
    30   21   20 1 
