@<TRIPOS>MOLECULE
C:\Users\Praveer\PycharmProjects\pdb_to_mol2_converter\data\pdb\alido.pdb
   24    24     0     0     0
SMALL
GASTEIGER

@<TRIPOS>ATOM
      1 C1          1.4570    0.0280   -0.0170 C.3       1 ALI1        0.0000
      2 H1          1.8370   -0.4790    0.9010 H         1 ALI1        0.0000
      3 O1          1.9640   -0.6670   -1.1270 O.3       1 ALI1        0.0000
      4 HO1         1.7410   -1.5940   -1.0010 H         1 ALI1        0.0000
      5 C5         -0.5840    0.7040   -1.0690 C.3       1 ALI1        0.0000
      6 H5         -0.2710    0.2350   -2.0330 H         1 ALI1        0.0000
      7 O5          0.0270   -0.0040    0.0310 O.3       1 ALI1        0.0000
      8 C2          1.9840    1.4640   -0.0170 C.3       1 ALI1        0.0000
      9 H2          3.0890    1.4240   -0.1820 H         1 ALI1        0.0000
     10 O2          1.7850    2.1030    1.2500 O.3       1 ALI1        0.0000
     11 HO2         2.5720    2.5990    1.5050 H         1 ALI1        0.0000
     12 C3          1.3550    2.2720   -1.1340 C.3       1 ALI1        0.0000
     13 H3          1.6390    3.3470   -1.0200 H         1 ALI1        0.0000
     14 O3          1.8630    1.8610   -2.3980 O.3       1 ALI1        0.0000
     15 HO3         1.9560    0.8950   -2.3850 H         1 ALI1        0.0000
     16 C4         -0.1530    2.1670   -1.0930 C.3       1 ALI1        0.0000
     17 H4         -0.5790    2.6510   -2.0040 H         1 ALI1        0.0000
     18 O4         -0.6670    2.8680    0.0310 O.3       1 ALI1        0.0000
     19 HO4        -0.1460    2.5880    0.8010 H         1 ALI1        0.0000
     20 C6         -2.0860    0.5410   -0.9570 C.3       1 ALI1        0.0000
     21 H61        -2.5870    1.1430   -1.7490 H         1 ALI1        0.0000
     22 H62        -2.4430    0.9140    0.0300 H         1 ALI1        0.0000
     23 O6         -2.4740   -0.8240   -1.1150 O.3       1 ALI1        0.0000
     24 HO6        -2.1250   -1.3280   -0.3720 H         1 ALI1        0.0000
@<TRIPOS>BOND
     1   14   15 1 
     2   14   12 1 
     3    6    5 1 
     4   17   16 1 
     5   21   20 1 
     6   12   16 1 
     7   12   13 1 
     8   12    8 1 
     9    3    4 1 
    10    3    1 1 
    11   23   20 1 
    12   23   24 1 
    13   16    5 1 
    14   16   18 1 
    15    5   20 1 
    16    5    7 1 
    17   20   22 1 
    18    9    8 1 
    19    1    8 1 
    20    1    7 1 
    21    1    2 1 
    22    8   10 1 
    23   18   19 1 
    24   10   11 1 
