@<TRIPOS>MOLECULE
C:\Users\Praveer\PycharmProjects\pdb_to_mol2_converter\data\pdb\alin.pdb
   49    48     0     0     0
SMALL
GASTEIGER

@<TRIPOS>ATOM
      1 O1          0.0030    0.0130   -0.0040 O.co2     1 ALI1        0.0000
      2 O2          1.9670   -1.0320   -0.0250 O.co2     1 ALI1        0.0000
      3 C1          1.2610    0.0100   -0.0120 C.2       1 ALI1        0.0000
      4 C2          1.9510    1.3750   -0.0030 C.3       1 ALI1        0.0000
      5 H2R         1.6080    1.9080    0.9060 H         1 ALI1        0.0000
      6 H2S         1.5940    1.9280   -0.8950 H         1 ALI1        0.0000
      7 C3          3.4940    1.2850   -0.0150 C.3       1 ALI1        0.0000
      8 H3R         3.8160    0.7360   -0.9290 H         1 ALI1        0.0000
      9 H3S         3.8250    0.6870    0.8640 H         1 ALI1        0.0000
     10 C4          4.1610    2.6660    0.0230 C.3       1 ALI1        0.0000
     11 H4R         3.8240    3.1960    0.9420 H         1 ALI1        0.0000
     12 H4S         3.8160    3.2560   -0.8550 H         1 ALI1        0.0000
     13 C5          5.6930    2.5850    0.0150 C.3       1 ALI1        0.0000
     14 H5R         6.0230    2.0800   -0.9200 H         1 ALI1        0.0000
     15 H5S         6.0210    1.9550    0.8720 H         1 ALI1        0.0000
     16 C6          6.3620    3.9630    0.1180 C.3       1 ALI1        0.0000
     17 H6R         6.0230    4.4550    1.0570 H         1 ALI1        0.0000
     18 H6S         6.0300    4.5960   -0.7360 H         1 ALI1        0.0000
     19 C7          7.8960    3.8770    0.1190 C.3       1 ALI1        0.0000
     20 H7R         8.2280    3.4280   -0.8440 H         1 ALI1        0.0000
     21 H7S         8.2050    3.1890    0.9400 H         1 ALI1        0.0000
     22 C8          8.5680    5.2490    0.3170 C.3       1 ALI1        0.0000
     23 H8R         8.2080    5.6770    1.2790 H         1 ALI1        0.0000
     24 H8S         8.2150    5.9240   -0.4950 H         1 ALI1        0.0000
     25 C9         10.0720    5.1280    0.3410 C.2       1 ALI1        0.0000
     26 H9R        10.4510    4.2580    0.8990 H         1 ALI1        0.0000
     27 C10        10.9610    5.9450   -0.2590 C.2       1 ALI1        0.0000
     28 H10R       12.0320    5.7090   -0.1580 H         1 ALI1        0.0000
     29 C11        10.6460    7.1890   -1.0580 C.3       1 ALI1        0.0000
     30 H11R        9.6090    7.5310   -0.8560 H         1 ALI1        0.0000
     31 H11S       10.6710    6.9300   -2.1400 H         1 ALI1        0.0000
     32 C12        11.6460    8.2960   -0.8080 C.2       1 ALI1        0.0000
     33 H12R       12.7000    7.9760   -0.7990 H         1 ALI1        0.0000
     34 C13        11.3800    9.6020   -0.5940 C.2       1 ALI1        0.0000
     35 H13R       12.2260   10.2880   -0.4280 H         1 ALI1        0.0000
     36 C14        10.0270   10.2670   -0.5700 C.3       1 ALI1        0.0000
     37 H14R        9.8170   10.6550    0.4510 H         1 ALI1        0.0000
     38 H14S        9.2020    9.5670   -0.8280 H         1 ALI1        0.0000
     39 C15         9.9860   11.4440   -1.5550 C.3       1 ALI1        0.0000
     40 H15R       10.1070   11.0980   -2.6050 H         1 ALI1        0.0000
     41 C16         8.7470   12.3340   -1.4210 C.3       1 ALI1        0.0000
     42 H16R        8.6560   12.7210   -0.3820 H         1 ALI1        0.0000
     43 C17         7.4390   11.6740   -1.8700 C.3       1 ALI1        0.0000
     44 H17R        7.2610   10.7610   -1.2560 H         1 ALI1        0.0000
     45 H17S        7.5500   11.3460   -2.9280 H         1 ALI1        0.0000
     46 C18         6.2210   12.5960   -1.7530 C.3       1 ALI1        0.0000
     47 H18R        6.3600   13.5040   -2.3790 H         1 ALI1        0.0000
     48 H18S        6.0740   12.9150   -0.6990 H         1 ALI1        0.0000
     49 H18T        5.3010   12.0730   -2.0920 H         1 ALI1        0.0000
@<TRIPOS>BOND
     1   45   43 1 
     2   40   39 1 
     3   47   46 1 
     4   31   29 1 
     5   49   46 1 
     6   43   46 1 
     7   43   41 1 
     8   43   44 1 
     9   46   48 1 
    10   39   41 1 
    11   39   36 1 
    12   41   42 1 
    13   29   30 1 
    14   29   32 1 
    15   29   27 1 
    16    8    7 1 
    17   14   13 1 
    18    6    4 1 
    19   12   10 1 
    20   20   19 1 
    21   38   36 1 
    22   32   33 1 
    23   32   34 2 
    24   18   16 1 
    25   34   36 1 
    26   34   35 1 
    27   36   37 1 
    28   24   22 1 
    29   27   28 1 
    30   27   25 2 
    31    2    3 ar
    32    7    4 1 
    33    7   10 1 
    34    7    9 1 
    35    3    1 ar
    36    3    4 1 
    37    4    5 1 
    38   13   10 1 
    39   13   16 1 
    40   13   15 1 
    41   10   11 1 
    42   16   19 1 
    43   16   17 1 
    44   19   22 1 
    45   19   21 1 
    46   22   25 1 
    47   22   23 1 
    48   25   26 1 
