@<TRIPOS>MOLECULE
C:\Users\Praveer\PycharmProjects\pdb_to_mol2_converter\data\pdb\alinp.pdb
   50    49     0     0     0
SMALL
GASTEIGER

@<TRIPOS>ATOM
      1 H1          0.0130   -0.0200    0.0120 H         1 ALI1        0.0000
      2 O1          0.9690   -0.0180    0.0040 O.3       1 ALI1        0.0000
      3 O2          0.5530    2.1900    0.0250 O.2       1 ALI1        0.0000
      4 C1          1.3760    1.2950    0.0110 C.2       1 ALI1        0.0000
      5 C2          2.8940    1.4380   -0.0040 C.3       1 ALI1        0.0000
      6 H2R         3.2810    0.9370   -0.9150 H         1 ALI1        0.0000
      7 H2S         3.3040    0.9180    0.8870 H         1 ALI1        0.0000
      8 C3          3.3330    2.9180    0.0050 C.3       1 ALI1        0.0000
      9 H3R         2.9560    3.4170    0.9270 H         1 ALI1        0.0000
     10 H3S         2.8870    3.4460   -0.8690 H         1 ALI1        0.0000
     11 C4          4.8580    3.0710   -0.0560 C.3       1 ALI1        0.0000
     12 H4R         5.2350    2.5800   -0.9820 H         1 ALI1        0.0000
     13 H4S         5.3170    2.5510    0.8140 H         1 ALI1        0.0000
     14 C5          5.3050    4.5400   -0.0550 C.3       1 ALI1        0.0000
     15 H5R         4.9680    5.0250    0.8880 H         1 ALI1        0.0000
     16 H5S         4.8110    5.0690   -0.9020 H         1 ALI1        0.0000
     17 C6          6.8260    4.6960   -0.1910 C.3       1 ALI1        0.0000
     18 H6R         7.1550    4.2070   -1.1350 H         1 ALI1        0.0000
     19 H6S         7.3270    4.1730    0.6540 H         1 ALI1        0.0000
     20 C7          7.2700    6.1660   -0.2080 C.3       1 ALI1        0.0000
     21 H7R         6.9820    6.6390    0.7580 H         1 ALI1        0.0000
     22 H7S         6.7160    6.6890   -1.0210 H         1 ALI1        0.0000
     23 C8          8.7860    6.3220   -0.4330 C.3       1 ALI1        0.0000
     24 H8R         9.0480    5.8270   -1.3950 H         1 ALI1        0.0000
     25 H8S         9.3110    5.7660    0.3750 H         1 ALI1        0.0000
     26 C9          9.1900    7.7760   -0.4800 C.2       1 ALI1        0.0000
     27 H9R         8.5220    8.4130   -1.0800 H         1 ALI1        0.0000
     28 C10        10.2400    8.3500    0.1400 C.2       1 ALI1        0.0000
     29 H10R       10.3850    9.4350    0.0110 H         1 ALI1        0.0000
     30 C11        11.2780    7.6620    0.9950 C.3       1 ALI1        0.0000
     31 H11R       11.2470    6.5620    0.8450 H         1 ALI1        0.0000
     32 H11S       11.0220    7.8270    2.0650 H         1 ALI1        0.0000
     33 C12        12.6650    8.2100    0.7450 C.2       1 ALI1        0.0000
     34 H12R       12.7270    9.3100    0.7090 H         1 ALI1        0.0000
     35 C13        13.8020    7.5100    0.5630 C.2       1 ALI1        0.0000
     36 H13R       14.7380    8.0630    0.3860 H         1 ALI1        0.0000
     37 C14        13.9690    6.0120    0.5820 C.3       1 ALI1        0.0000
     38 H14R       14.2930    5.6580   -0.4220 H         1 ALI1        0.0000
     39 H14S       13.0260    5.4770    0.8260 H         1 ALI1        0.0000
     40 C15        15.0370    5.6130    1.6090 C.3       1 ALI1        0.0000
     41 H15R       14.7140    5.8600    2.6440 H         1 ALI1        0.0000
     42 C16        15.4720    4.1490    1.5160 C.3       1 ALI1        0.0000
     43 H16R       15.8420    3.9200    0.4930 H         1 ALI1        0.0000
     44 C17        14.3930    3.1480    1.9410 C.3       1 ALI1        0.0000
     45 H17R       13.4890    3.2910    1.3070 H         1 ALI1        0.0000
     46 H17S       14.1000    3.3690    2.9930 H         1 ALI1        0.0000
     47 C18        14.8430    1.6890    1.8400 C.3       1 ALI1        0.0000
     48 H18R       15.7460    1.5200    2.4660 H         1 ALI1        0.0000
     49 H18S       15.0910    1.4290    0.7880 H         1 ALI1        0.0000
     50 H18T       14.0380    1.0070    2.1900 H         1 ALI1        0.0000
@<TRIPOS>BOND
     1   24   23 1 
     2   18   17 1 
     3   27   26 1 
     4   22   20 1 
     5   12   11 1 
     6    6    5 1 
     7   16   14 1 
     8   10    8 1 
     9   26   23 1 
    10   26   28 2 
    11   23   20 1 
    12   23   25 1 
    13   38   37 1 
    14   20   17 1 
    15   20   21 1 
    16   17   14 1 
    17   17   19 1 
    18   11   14 1 
    19   11    8 1 
    20   11   13 1 
    21   14   15 1 
    22    5    8 1 
    23    5    4 1 
    24    5    7 1 
    25    2    4 1 
    26    2    1 1 
    27    8    9 1 
    28    4    3 2 
    29   29   28 1 
    30   28   30 1 
    31   36   35 1 
    32   43   42 1 
    33   35   37 1 
    34   35   33 2 
    35   37   39 1 
    36   37   40 1 
    37   34   33 1 
    38   33   30 1 
    39   49   47 1 
    40   31   30 1 
    41   30   32 1 
    42   45   44 1 
    43   42   40 1 
    44   42   44 1 
    45   40   41 1 
    46   47   44 1 
    47   47   50 1 
    48   47   48 1 
    49   44   46 1 
