@<TRIPOS>MOLECULE
C:\Users\Praveer\PycharmProjects\pdb_to_mol2_converter\data\pdb\allose.pdb
   24    23     0     0     0
SMALL
GASTEIGER

@<TRIPOS>ATOM
      1 C1          0.0580   -0.0580    0.0980 C.2       1 ALL1        0.0000
      2 O1         -0.5230   -0.6820    0.9700 O.2       1 ALL1        0.0000
      3 H1         -0.5690    0.5410   -0.5940 H         1 ALL1        0.0000
      4 C2          1.5480    0.0300   -0.1810 C.3       1 ALL1        0.0000
      5 H2          1.6900   -0.1980   -1.2640 H         1 ALL1        0.0000
      6 O2          2.2910   -0.9590    0.5470 O.3       1 ALL1        0.0000
      7 HO2         2.9520   -0.4770    1.0670 H         1 ALL1        0.0000
      8 C3          2.0760    1.4250    0.1210 C.3       1 ALL1        0.0000
      9 H3          1.7160    1.7410    1.1280 H         1 ALL1        0.0000
     10 O3          1.4900    2.3200   -0.8360 O.3       1 ALL1        0.0000
     11 HO3         2.2250    2.8410   -1.2130 H         1 ALL1        0.0000
     12 C4          3.6100    1.5140    0.0740 C.3       1 ALL1        0.0000
     13 H4          3.9810    0.8670   -0.7580 H         1 ALL1        0.0000
     14 O4          4.0990    0.9900    1.3220 O.3       1 ALL1        0.0000
     15 HO4         4.2500    1.7290    1.9230 H         1 ALL1        0.0000
     16 C5          4.2020    2.9160   -0.1160 C.3       1 ALL1        0.0000
     17 H5          3.7820    3.5740    0.6850 H         1 ALL1        0.0000
     18 O5          3.8540    3.4700   -1.3900 O.3       1 ALL1        0.0000
     19 HO5         4.4610    4.2200   -1.4880 H         1 ALL1        0.0000
     20 C6          5.7210    2.9380   -0.0430 C.3       1 ALL1        0.0000
     21 H61         6.1620    2.5170   -0.9760 H         1 ALL1        0.0000
     22 H62         6.0980    2.3370    0.8120 H         1 ALL1        0.0000
     23 O6          6.1600    4.2910    0.1370 O.3       1 ALL1        0.0000
     24 HO6         7.0920    4.2710    0.3840 H         1 ALL1        0.0000
@<TRIPOS>BOND
     1   19   18 1 
     2   18   16 1 
     3    5    4 1 
     4   11   10 1 
     5   21   20 1 
     6   10    8 1 
     7   13   12 1 
     8    3    1 1 
     9    4    1 1 
    10    4    8 1 
    11    4    6 1 
    12   16   20 1 
    13   16   12 1 
    14   16   17 1 
    15   20   23 1 
    16   20   22 1 
    17   12    8 1 
    18   12   14 1 
    19    1    2 2 
    20    8    9 1 
    21   23   24 1 
    22    6    7 1 
    23   14   15 1 
