@<TRIPOS>MOLECULE
C:\Users\Praveer\PycharmProjects\pdb_to_mol2_converter\data\pdb\almana.pdb
   30    30     0     0     0
SMALL
GASTEIGER

@<TRIPOS>ATOM
      1 C1          1.4360    0.0800   -0.0440 C.3       1 ALM1        0.0000
      2 H1          1.8160   -0.4000    0.8890 H         1 ALM1        0.0000
      3 O1          1.9650   -0.6170   -1.1350 O.3       1 ALM1        0.0000
      4 HO1         1.7000   -1.5360   -1.0540 H         1 ALM1        0.0000
      5 C5         -0.5960    0.6960   -1.1650 C.3       1 ALM1        0.0000
      6 H5         -0.3200    0.1080   -2.0750 H         1 ALM1        0.0000
      7 O5          0.0080    0.0910    0.0030 O.3       1 ALM1        0.0000
      8 C2          1.8970    1.5230   -0.0620 C.3       1 ALM1        0.0000
      9 H2          3.0170    1.5180   -0.0920 H         1 ALM1        0.0000
     10 N           1.4830    2.1980    1.1650 N.am      1 ALM1        0.0000
     11 HN          0.7300    1.7800    1.6620 H         1 ALM1        0.0000
     12 C           2.0230    3.3320    1.6260 C.2       1 ALM1        0.0000
     13 O           2.9220    3.9080    1.0300 O.2       1 ALM1        0.0000
     14 CT          1.4570    3.8830    2.9070 C.3       1 ALM1        0.0000
     15 HT1         2.1070    3.5900    3.7570 H         1 ALM1        0.0000
     16 HT2         0.4290    3.5070    3.0770 H         1 ALM1        0.0000
     17 HT3         1.4320    4.9930    2.8410 H         1 ALM1        0.0000
     18 C3          1.3930    2.1800   -1.3300 C.3       1 ALM1        0.0000
     19 H3          1.7710    1.6170   -2.2170 H         1 ALM1        0.0000
     20 O3          1.8850    3.5100   -1.4750 O.3       1 ALM1        0.0000
     21 HO3         2.3010    3.7870   -0.6350 H         1 ALM1        0.0000
     22 C4         -0.1160    2.1320   -1.3480 C.3       1 ALM1        0.0000
     23 H4         -0.5110    2.7450   -0.5040 H         1 ALM1        0.0000
     24 O4         -0.6290    2.6850   -2.5530 O.3       1 ALM1        0.0000
     25 HO4        -0.0280    3.4000   -2.8000 H         1 ALM1        0.0000
     26 C6         -2.0990    0.6200   -0.9990 C.3       1 ALM1        0.0000
     27 H61        -2.5980    1.0480   -1.8990 H         1 ALM1        0.0000
     28 H62        -2.4120    1.2240   -0.1180 H         1 ALM1        0.0000
     29 O6         -2.5460   -0.7240   -0.8280 O.3       1 ALM1        0.0000
     30 HO6        -2.1140   -1.0970   -0.0500 H         1 ALM1        0.0000
@<TRIPOS>BOND
     1   25   24 1 
     2   24   22 1 
     3   19   18 1 
     4    6    5 1 
     5   27   26 1 
     6   20   18 1 
     7   20   21 1 
     8   22   18 1 
     9   22    5 1 
    10   22   23 1 
    11   18    8 1 
    12    5   26 1 
    13    5    7 1 
    14    3    4 1 
    15    3    1 1 
    16   26   29 1 
    17   26   28 1 
    18   29   30 1 
    19    9    8 1 
    20    8    1 1 
    21    8   10 1 
    22    1    7 1 
    23    1    2 1 
    24   13   12 2 
    25   10   12 am
    26   10   11 1 
    27   12   14 1 
    28   17   14 1 
    29   14   16 1 
    30   14   15 1 
