@<TRIPOS>MOLECULE
C:\Users\Praveer\PycharmProjects\pdb_to_mol2_converter\data\pdb\alman.pdb
   24    24     0     0     0
SMALL
GASTEIGER

@<TRIPOS>ATOM
      1 C1          1.4340    0.0130   -0.0260 C.3       1 ALM1        0.0000
      2 H1          1.7910   -0.5230    0.8850 H         1 ALM1        0.0000
      3 O1          1.9670   -0.6370   -1.1480 O.3       1 ALM1        0.0000
      4 HO1         1.7080   -1.5600   -1.0850 H         1 ALM1        0.0000
      5 C5         -0.5780    0.7200   -1.1210 C.3       1 ALM1        0.0000
      6 H5         -0.2500    0.2650   -2.0870 H         1 ALM1        0.0000
      7 O5          0.0030   -0.0080   -0.0190 O.3       1 ALM1        0.0000
      8 C2          1.9630    1.4390    0.0240 C.3       1 ALM1        0.0000
      9 H2          3.0730    1.4050   -0.0940 H         1 ALM1        0.0000
     10 O2          1.7000    2.0640    1.2820 O.3       1 ALM1        0.0000
     11 HO2         1.8350    3.0130    1.1540 H         1 ALM1        0.0000
     12 C3          1.3870    2.2540   -1.1160 C.3       1 ALM1        0.0000
     13 H3          1.7340    1.8020   -2.0770 H         1 ALM1        0.0000
     14 O3          1.8510    3.6090   -1.0770 O.3       1 ALM1        0.0000
     15 HO3         2.2730    3.8290   -1.9150 H         1 ALM1        0.0000
     16 C4         -0.1270    2.1750   -1.0890 C.3       1 ALM1        0.0000
     17 H4         -0.4940    2.6240   -0.1350 H         1 ALM1        0.0000
     18 O4         -0.7090    2.8980   -2.1700 O.3       1 ALM1        0.0000
     19 HO4        -0.5770    3.8390   -2.0100 H         1 ALM1        0.0000
     20 C6         -2.0820    0.5660   -1.0290 C.3       1 ALM1        0.0000
     21 H61        -2.5720    1.0730   -1.8910 H         1 ALM1        0.0000
     22 H62        -2.4540    1.0430   -0.0940 H         1 ALM1        0.0000
     23 O6         -2.4660   -0.8100   -1.0370 O.3       1 ALM1        0.0000
     24 HO6        -2.0220   -1.2480   -0.3020 H         1 ALM1        0.0000
@<TRIPOS>BOND
     1   18   19 1 
     2   18   16 1 
     3    6    5 1 
     4   13   12 1 
     5   15   14 1 
     6   21   20 1 
     7    3    4 1 
     8    3    1 1 
     9    5   16 1 
    10    5   20 1 
    11    5    7 1 
    12   12   16 1 
    13   12   14 1 
    14   12    8 1 
    15   16   17 1 
    16   23   20 1 
    17   23   24 1 
    18   20   22 1 
    19    9    8 1 
    20    1    7 1 
    21    1    8 1 
    22    1    2 1 
    23    8   10 1 
    24   11   10 1 
