@<TRIPOS>MOLECULE
C:\Users\Praveer\PycharmProjects\pdb_to_mol2_converter\data\pdb\alqui.pdb
   23    23     0     0     0
SMALL
GASTEIGER

@<TRIPOS>ATOM
      1 C1          1.4160   -0.0990   -0.0300 C.3       1 ALQ1        0.0000
      2 H1          1.7310   -0.6470    0.8890 H         1 ALQ1        0.0000
      3 O1          1.9710   -0.7690   -1.1330 O.3       1 ALQ1        0.0000
      4 HO1         2.9260   -0.6910   -1.0420 H         1 ALQ1        0.0000
      5 C5         -0.5410    0.6420   -1.1730 C.3       1 ALQ1        0.0000
      6 H5         -0.2190    0.1070   -2.0970 H         1 ALQ1        0.0000
      7 O5         -0.0120   -0.0280   -0.0210 O.3       1 ALQ1        0.0000
      8 C2          1.9440    1.3260    0.0470 C.3       1 ALQ1        0.0000
      9 H2          1.5180    1.7860    0.9710 H         1 ALQ1        0.0000
     10 O2          3.3690    1.3800    0.1710 O.3       1 ALQ1        0.0000
     11 HO2         3.6140    2.3110    0.0680 H         1 ALQ1        0.0000
     12 C3          1.4640    2.1270   -1.1490 C.3       1 ALQ1        0.0000
     13 H3          1.8750    1.6450   -2.0690 H         1 ALQ1        0.0000
     14 O3          1.9510    3.4710   -1.1260 O.3       1 ALQ1        0.0000
     15 HO3         1.7560    3.8600   -1.9860 H         1 ALQ1        0.0000
     16 C4         -0.0490    2.0860   -1.2300 C.3       1 ALQ1        0.0000
     17 H4         -0.4650    2.6140   -0.3380 H         1 ALQ1        0.0000
     18 O4         -0.5300    2.7540   -2.3990 O.3       1 ALQ1        0.0000
     19 HO4        -1.0990    3.4860   -2.1500 H         1 ALQ1        0.0000
     20 C6         -2.0720    0.5190   -1.0590 C.3       1 ALQ1        0.0000
     21 H61        -2.3650   -0.5530   -1.0250 H         1 ALQ1        0.0000
     22 H62        -2.5700    0.9960   -1.9280 H         1 ALQ1        0.0000
     23 H63        -2.4250    1.0070   -0.1280 H         1 ALQ1        0.0000
@<TRIPOS>BOND
     1   18   19 1 
     2   18   16 1 
     3    6    5 1 
     4   13   12 1 
     5   15   14 1 
     6   22   20 1 
     7   16    5 1 
     8   16   12 1 
     9   16   17 1 
    10    5   20 1 
    11    5    7 1 
    12   12   14 1 
    13   12    8 1 
    14    3    4 1 
    15    3    1 1 
    16   20   21 1 
    17   20   23 1 
    18    1    7 1 
    19    1    8 1 
    20    1    2 1 
    21    8   10 1 
    22    8    9 1 
    23   11   10 1 
