@<TRIPOS>MOLECULE
C:\Users\Praveer\PycharmProjects\pdb_to_mol2_converter\data\pdb\alrib.pdb
   20    20     0     0     0
SMALL
GASTEIGER

@<TRIPOS>ATOM
      1 O4          1.3950   -0.0340    0.0410 O.3       1 ALR1        0.0000
      2 C1          1.8710    1.3060    0.0030 C.3       1 ALR1        0.0000
      3 H1          2.9250    1.3060    0.3550 H         1 ALR1        0.0000
      4 O1          1.8300    1.8590   -1.2800 O.3       1 ALR1        0.0000
      5 HO1         1.7020    2.8050   -1.1440 H         1 ALR1        0.0000
      6 C4         -0.0310    0.0430    0.0030 C.3       1 ALR1        0.0000
      7 H4         -0.3060    0.3100   -1.0430 H         1 ALR1        0.0000
      8 C5         -0.6160   -1.2910    0.3750 C.3       1 ALR1        0.0000
      9 H51        -0.3050   -1.5660    1.4090 H         1 ALR1        0.0000
     10 H52        -0.2360   -2.0820   -0.3120 H         1 ALR1        0.0000
     11 O5         -2.0440   -1.2480    0.3120 O.3       1 ALR1        0.0000
     12 HO5        -2.3420   -1.3830   -0.5950 H         1 ALR1        0.0000
     13 C2          0.9450    2.0190    1.0210 C.3       1 ALR1        0.0000
     14 H2          1.3970    1.9180    2.0320 H         1 ALR1        0.0000
     15 O2          0.7370    3.3970    0.7670 O.3       1 ALR1        0.0000
     16 HO2        -0.2070    3.4700    0.5540 H         1 ALR1        0.0000
     17 C3         -0.3630    1.1710    0.9800 C.3       1 ALR1        0.0000
     18 H3         -0.5550    0.7620    1.9970 H         1 ALR1        0.0000
     19 O3         -1.5100    1.8720    0.5460 O.3       1 ALR1        0.0000
     20 HO3        -2.2650    1.2680    0.5960 H         1 ALR1        0.0000
@<TRIPOS>BOND
     1    4    5 1 
     2    4    2 1 
     3    7    6 1 
     4   12   11 1 
     5   10    8 1 
     6    2    1 1 
     7    2    3 1 
     8    2   13 1 
     9    6    1 1 
    10    6    8 1 
    11    6   17 1 
    12   11    8 1 
    13    8    9 1 
    14   19   20 1 
    15   19   17 1 
    16   16   15 1 
    17   15   13 1 
    18   17   13 1 
    19   17   18 1 
    20   13   14 1 
