@<TRIPOS>MOLECULE
C:\Users\Praveer\PycharmProjects\pdb_to_mol2_converter\data\pdb\alribp.pdb
   20    20     0     0     0
SMALL
GASTEIGER

@<TRIPOS>ATOM
      1 C1          1.4750   -0.0500   -0.1050 C.3       1 ALR1        0.0000
      2 H1          1.8480   -0.6560    0.7530 H         1 ALR1        0.0000
      3 O1          1.8200   -0.7400   -1.2780 O.3       1 ALR1        0.0000
      4 HO1         2.7790   -0.7300   -1.3320 H         1 ALR1        0.0000
      5 C5         -0.5170    0.9180   -0.9580 C.3       1 ALR1        0.0000
      6 H51        -1.6220    0.9150   -0.8270 H         1 ALR1        0.0000
      7 H52        -0.3010    0.4820   -1.9600 H         1 ALR1        0.0000
      8 O5          0.0660    0.1160    0.0770 O.3       1 ALR1        0.0000
      9 C2          2.1490    1.3240   -0.0390 C.3       1 ALR1        0.0000
     10 H2          1.9770    1.6940    1.0010 H         1 ALR1        0.0000
     11 O2          3.5650    1.2610   -0.2280 O.3       1 ALR1        0.0000
     12 HO2         3.7120    1.4970   -1.1570 H         1 ALR1        0.0000
     13 C3          1.5270    2.3430   -0.9840 C.3       1 ALR1        0.0000
     14 H3          1.8790    3.3570   -0.6720 H         1 ALR1        0.0000
     15 O3          1.9650    2.1720   -2.3320 O.3       1 ALR1        0.0000
     16 HO3         1.2340    2.4770   -2.8890 H         1 ALR1        0.0000
     17 C4          0.0100    2.3330   -0.8680 C.3       1 ALR1        0.0000
     18 H4         -0.2570    2.7380    0.1380 H         1 ALR1        0.0000
     19 O4         -0.6130    3.1450   -1.8600 O.3       1 ALR1        0.0000
     20 HO4        -1.4160    3.5460   -1.5100 H         1 ALR1        0.0000
@<TRIPOS>BOND
     1   16   15 1 
     2   15   13 1 
     3    7    5 1 
     4   19   20 1 
     5   19   17 1 
     6    4    3 1 
     7    3    1 1 
     8   12   11 1 
     9   13   17 1 
    10   13   14 1 
    11   13    9 1 
    12    5   17 1 
    13    5    6 1 
    14    5    8 1 
    15   17   18 1 
    16   11    9 1 
    17    1    9 1 
    18    1    8 1 
    19    1    2 1 
    20    9   10 1 
