@<TRIPOS>MOLECULE
C:\Users\Praveer\PycharmProjects\pdb_to_mol2_converter\data\pdb\alrulf.pdb
   20    20     0     0     0
SMALL
GASTEIGER

@<TRIPOS>ATOM
      1 O5          1.4100    0.0190    0.1360 O.3       1 ALR1        0.0000
      2 C2          1.9600    1.3420    0.0340 C.3       1 ALR1        0.0000
      3 O2          2.6120    1.3840   -1.2010 O.3       1 ALR1        0.0000
      4 HO2         1.9810    1.8480   -1.7650 H         1 ALR1        0.0000
      5 C5         -0.0090    0.0920    0.0030 C.3       1 ALR1        0.0000
      6 H51        -0.4600   -0.8060    0.4510 H         1 ALR1        0.0000
      7 H52        -0.2530    0.1060   -1.0710 H         1 ALR1        0.0000
      8 C1          2.9410    1.4290    1.1890 C.3       1 ALR1        0.0000
      9 H11         3.7840    0.7220    1.0170 H         1 ALR1        0.0000
     10 H12         2.4280    1.1100    2.1240 H         1 ALR1        0.0000
     11 O1          3.4580    2.7510    1.4020 O.3       1 ALR1        0.0000
     12 HO1         3.9980    3.0050    0.6420 H         1 ALR1        0.0000
     13 C3          0.7260    2.3150    0.1260 C.3       1 ALR1        0.0000
     14 H3          0.9340    3.1720    0.7960 H         1 ALR1        0.0000
     15 O3          0.2850    2.8120   -1.1320 O.3       1 ALR1        0.0000
     16 HO3        -0.6770    2.6910   -1.1490 H         1 ALR1        0.0000
     17 C4         -0.3450    1.3760    0.7190 C.3       1 ALR1        0.0000
     18 H4         -0.2030    1.2560    1.8170 H         1 ALR1        0.0000
     19 O4         -1.6860    1.7040    0.4270 O.3       1 ALR1        0.0000
     20 HO4        -2.0870    2.1720    1.1680 H         1 ALR1        0.0000
@<TRIPOS>BOND
     1    4    3 1 
     2    3    2 1 
     3   16   15 1 
     4   15   13 1 
     5    7    5 1 
     6    5    1 1 
     7    5    6 1 
     8    5   17 1 
     9    2   13 1 
    10    2    1 1 
    11    2    8 1 
    12   13   17 1 
    13   13   14 1 
    14   19   17 1 
    15   19   20 1 
    16   12   11 1 
    17   17   18 1 
    18    9    8 1 
    19    8   11 1 
    20    8   10 1 
