@<TRIPOS>MOLECULE
C:\Users\Praveer\PycharmProjects\pdb_to_mol2_converter\data\pdb\altagp.pdb
   24    24     0     0     0
SMALL
GASTEIGER

@<TRIPOS>ATOM
      1 C2          1.4430   -0.0510   -0.0930 C.3       1 ALT1        0.0000
      2 O2          1.9070   -0.7400   -1.2240 O.3       1 ALT1        0.0000
      3 HO2         1.8480   -1.6640   -0.9520 H         1 ALT1        0.0000
      4 C6         -0.4020    0.9240   -1.2740 C.3       1 ALT1        0.0000
      5 H61        -1.5120    1.0030   -1.2500 H         1 ALT1        0.0000
      6 H62        -0.1280    0.4380   -2.2380 H         1 ALT1        0.0000
      7 O6          0.0160    0.1110   -0.1650 O.3       1 ALT1        0.0000
      8 C3          2.1500    1.3010   -0.0190 C.3       1 ALT1        0.0000
      9 H3          3.2490    1.1220   -0.1140 H         1 ALT1        0.0000
     10 O3          1.9460    1.9600    1.2360 O.3       1 ALT1        0.0000
     11 HO3         2.2540    2.8690    1.1160 H         1 ALT1        0.0000
     12 C4          1.7210    2.1930   -1.1690 C.3       1 ALT1        0.0000
     13 H4          2.0490    1.7200   -2.1270 H         1 ALT1        0.0000
     14 O4          2.3360    3.4810   -1.0930 O.3       1 ALT1        0.0000
     15 HO4         2.0080    3.9970   -1.8410 H         1 ALT1        0.0000
     16 C5          0.2100    2.3060   -1.1890 C.3       1 ALT1        0.0000
     17 H5         -0.1220    2.7830   -0.2340 H         1 ALT1        0.0000
     18 O5         -0.2510    3.1060   -2.2730 O.3       1 ALT1        0.0000
     19 HO5        -1.0260    3.6090   -2.0020 H         1 ALT1        0.0000
     20 C1          1.6610   -0.9010    1.1710 C.3       1 ALT1        0.0000
     21 H1A         0.9360   -0.6010    1.9600 H         1 ALT1        0.0000
     22 H1B         2.6760   -0.6530    1.5590 H         1 ALT1        0.0000
     23 O1          1.6380   -2.3310    0.9790 O.3       1 ALT1        0.0000
     24 HO1         0.7420   -2.6630    1.1140 H         1 ALT1        0.0000
@<TRIPOS>BOND
     1   18   19 1 
     2   18   16 1 
     3    6    4 1 
     4   13   12 1 
     5   15   14 1 
     6    4    5 1 
     7    4   16 1 
     8    4    7 1 
     9    2    3 1 
    10    2    1 1 
    11   16   12 1 
    12   16   17 1 
    13   12   14 1 
    14   12    8 1 
    15    7    1 1 
    16    9    8 1 
    17    1    8 1 
    18    1   20 1 
    19    8   10 1 
    20   23   24 1 
    21   23   20 1 
    22   11   10 1 
    23   20   22 1 
    24   20   21 1 
