@<TRIPOS>MOLECULE
C:\Users\Praveer\PycharmProjects\pdb_to_mol2_converter\data\pdb\altal.pdb
   24    24     0     0     0
SMALL
GASTEIGER

@<TRIPOS>ATOM
      1 C1          1.4310    0.0640   -0.0230 C.3       1 ALT1        0.0000
      2 H1          1.8200   -0.4450    0.8910 H         1 ALT1        0.0000
      3 O1          1.9570   -0.5990   -1.1390 O.3       1 ALT1        0.0000
      4 HO1         1.7520   -1.5320   -1.0380 H         1 ALT1        0.0000
      5 C5         -0.6130    0.7000   -1.0910 C.3       1 ALT1        0.0000
      6 H5         -0.2780    0.2370   -2.0510 H         1 ALT1        0.0000
      7 O5          0.0010    0.0080    0.0170 O.3       1 ALT1        0.0000
      8 C2          1.9270    1.5060   -0.0130 C.3       1 ALT1        0.0000
      9 H2          3.0330    1.4880   -0.1720 H         1 ALT1        0.0000
     10 O2          1.7040    2.1310    1.2600 O.3       1 ALT1        0.0000
     11 HO2         2.3230    2.8650    1.3530 H         1 ALT1        0.0000
     12 C3          1.3030    2.2860   -1.1600 C.3       1 ALT1        0.0000
     13 H3          1.6580    1.8320   -2.1170 H         1 ALT1        0.0000
     14 O3          1.7160    3.6510   -1.1700 O.3       1 ALT1        0.0000
     15 HO3         1.0610    4.1420   -0.6560 H         1 ALT1        0.0000
     16 C4         -0.2070    2.1690   -1.1120 C.3       1 ALT1        0.0000
     17 H4         -0.6330    2.6380   -2.0310 H         1 ALT1        0.0000
     18 O4         -0.7470    2.8640    0.0080 O.3       1 ALT1        0.0000
     19 HO4        -0.2810    2.5270    0.7920 H         1 ALT1        0.0000
     20 C6         -2.1110    0.5080   -0.9900 C.3       1 ALT1        0.0000
     21 H61        -2.6200    1.1090   -1.7780 H         1 ALT1        0.0000
     22 H62        -2.4820    0.8620   -0.0020 H         1 ALT1        0.0000
     23 O6         -2.4720   -0.8620   -1.1670 O.3       1 ALT1        0.0000
     24 HO6        -2.1200   -1.3690   -0.4270 H         1 ALT1        0.0000
@<TRIPOS>BOND
     1   13   12 1 
     2    6    5 1 
     3   17   16 1 
     4   21   20 1 
     5   14   12 1 
     6   14   15 1 
     7   23   20 1 
     8   23   24 1 
     9   12   16 1 
    10   12    8 1 
    11    3    4 1 
    12    3    1 1 
    13   16    5 1 
    14   16   18 1 
    15    5   20 1 
    16    5    7 1 
    17   20   22 1 
    18    9    8 1 
    19    1    8 1 
    20    1    7 1 
    21    1    2 1 
    22    8   10 1 
    23   18   19 1 
    24   10   11 1 
