@<TRIPOS>MOLECULE
C:\Users\Praveer\PycharmProjects\pdb_to_mol2_converter\data\pdb\altana.pdb
   30    30     0     0     0
SMALL
GASTEIGER

@<TRIPOS>ATOM
      1 C1          1.4700    0.1460   -0.0230 C.3       1 ALT1        0.0000
      2 H1          1.8930   -0.3390    0.8890 H         1 ALT1        0.0000
      3 O1          1.9320   -0.5600   -1.1400 O.3       1 ALT1        0.0000
      4 HO1         1.8040   -1.4970   -0.9730 H         1 ALT1        0.0000
      5 C5         -0.6090    0.8020   -1.0150 C.3       1 ALT1        0.0000
      6 H5         -0.3390    0.2570   -1.9520 H         1 ALT1        0.0000
      7 O5          0.0430    0.1470    0.0960 O.3       1 ALT1        0.0000
      8 C2          1.9710    1.5760   -0.0650 C.3       1 ALT1        0.0000
      9 H2          3.0810    1.5340   -0.2210 H         1 ALT1        0.0000
     10 N           1.7220    2.2480    1.2060 N.am      1 ALT1        0.0000
     11 HN          0.8540    2.0320    1.6420 H         1 ALT1        0.0000
     12 C           2.4710    3.2300    1.7170 C.2       1 ALT1        0.0000
     13 O           3.4680    3.6500    1.1520 O.2       1 ALT1        0.0000
     14 CT          2.0110    3.8210    3.0240 C.3       1 ALT1        0.0000
     15 HT1         2.6750    3.4830    3.8440 H         1 ALT1        0.0000
     16 HT2         0.9680    3.5190    3.2420 H         1 ALT1        0.0000
     17 HT3         2.0580    4.9280    2.9600 H         1 ALT1        0.0000
     18 C3          1.3670    2.2800   -1.2650 C.3       1 ALT1        0.0000
     19 H3          1.6570    1.7150   -2.1830 H         1 ALT1        0.0000
     20 O3          1.9190    3.5790   -1.4340 O.3       1 ALT1        0.0000
     21 HO3         2.1430    3.9290   -0.5600 H         1 ALT1        0.0000
     22 C4         -0.1560    2.2580   -1.1970 C.3       1 ALT1        0.0000
     23 H4         -0.5570    2.6290   -2.1680 H         1 ALT1        0.0000
     24 O4         -0.6930    3.0920   -0.1740 O.3       1 ALT1        0.0000
     25 HO4        -1.5420    2.7010    0.0970 H         1 ALT1        0.0000
     26 C6         -2.1110    0.6350   -0.8400 C.3       1 ALT1        0.0000
     27 H61        -2.3710   -0.4480   -0.8820 H         1 ALT1        0.0000
     28 H62        -2.6450    1.1400   -1.6760 H         1 ALT1        0.0000
     29 O6         -2.5890    1.1720    0.3960 O.3       1 ALT1        0.0000
     30 HO6        -2.2670    0.6230    1.1230 H         1 ALT1        0.0000
@<TRIPOS>BOND
     1   19   18 1 
     2   23   22 1 
     3    6    5 1 
     4   28   26 1 
     5   20   18 1 
     6   20   21 1 
     7   18   22 1 
     8   18    8 1 
     9   22    5 1 
    10   22   24 1 
    11    3    4 1 
    12    3    1 1 
    13    5   26 1 
    14    5    7 1 
    15   27   26 1 
    16   26   29 1 
    17    9    8 1 
    18   24   25 1 
    19    8    1 1 
    20    8   10 1 
    21    1    7 1 
    22    1    2 1 
    23   29   30 1 
    24   13   12 2 
    25   10   11 1 
    26   10   12 am
    27   12   14 1 
    28   17   14 1 
    29   14   16 1 
    30   14   15 1 
