@<TRIPOS>MOLECULE
C:\Users\Praveer\PycharmProjects\pdb_to_mol2_converter\data\pdb\alxyl.pdb
   20    20     0     0     0
SMALL
GASTEIGER

@<TRIPOS>ATOM
      1 C1          1.4400   -0.0080   -0.0320 C.3       1 ALX1        0.0000
      2 H1          1.8100   -0.5130    0.8910 H         1 ALX1        0.0000
      3 O1          1.9470   -0.7010   -1.1430 O.3       1 ALX1        0.0000
      4 HO1         1.6670   -1.6160   -1.0510 H         1 ALX1        0.0000
      5 C5         -0.5820    0.6990   -1.0940 C.3       1 ALX1        0.0000
      6 H51        -1.6910    0.6440   -0.9990 H         1 ALX1        0.0000
      7 H52        -0.3110    0.2160   -2.0600 H         1 ALX1        0.0000
      8 O5          0.0110   -0.0110    0.0070 O.3       1 ALX1        0.0000
      9 C2          1.9530    1.4300   -0.0260 C.3       1 ALX1        0.0000
     10 H2          1.6070    1.8930    0.9300 H         1 ALX1        0.0000
     11 O2          3.3850    1.5040   -0.0280 O.3       1 ALX1        0.0000
     12 HO2         3.7090    0.8850   -0.6960 H         1 ALX1        0.0000
     13 C3          1.3540    2.2330   -1.1640 C.3       1 ALX1        0.0000
     14 H3          1.6930    1.7870   -2.1310 H         1 ALX1        0.0000
     15 O3          1.8000    3.5890   -1.1320 O.3       1 ALX1        0.0000
     16 HO3         2.7240    3.5760   -0.8490 H         1 ALX1        0.0000
     17 C4         -0.1530    2.1490   -1.1000 C.3       1 ALX1        0.0000
     18 H4         -0.5050    2.6310   -0.1560 H         1 ALX1        0.0000
     19 O4         -0.7580    2.8240   -2.1920 O.3       1 ALX1        0.0000
     20 HO4        -0.3070    3.6740   -2.2740 H         1 ALX1        0.0000
@<TRIPOS>BOND
     1   20   19 1 
     2   19   17 1 
     3   14   13 1 
     4    7    5 1 
     5   13   15 1 
     6   13   17 1 
     7   13    9 1 
     8    3    4 1 
     9    3    1 1 
    10   15   16 1 
    11   17    5 1 
    12   17   18 1 
    13    5    6 1 
    14    5    8 1 
    15   12   11 1 
    16    1    9 1 
    17    1    8 1 
    18    1    2 1 
    19   11    9 1 
    20    9   10 1 
