@<TRIPOS>MOLECULE
C:\Users\Praveer\PycharmProjects\pdb_to_mol2_converter\data\pdb\alyf.pdb
   20    20     0     0     0
SMALL
GASTEIGER

@<TRIPOS>ATOM
      1 O4          1.4720   -0.0020   -0.0530 O.3       1 ALY1        0.0000
      2 C1          1.8900    1.3570    0.0320 C.3       1 ALY1        0.0000
      3 H1          2.8710    1.4440   -0.4880 H         1 ALY1        0.0000
      4 O1          2.0470    1.7250    1.3680 O.3       1 ALY1        0.0000
      5 HO1         2.7570    1.1850    1.7250 H         1 ALY1        0.0000
      6 C4          0.0460   -0.0020    0.0700 C.3       1 ALY1        0.0000
      7 H4         -0.2000    0.2510    1.1270 H         1 ALY1        0.0000
      8 C5         -0.4970   -1.3670   -0.2640 C.3       1 ALY1        0.0000
      9 H51        -0.2310   -2.0860    0.5440 H         1 ALY1        0.0000
     10 H52        -0.0550   -1.7480   -1.2130 H         1 ALY1        0.0000
     11 O5         -1.9160   -1.3180   -0.3970 O.3       1 ALY1        0.0000
     12 HO5        -2.1340   -0.7680   -1.1620 H         1 ALY1        0.0000
     13 C2          0.7890    2.1770   -0.6860 C.3       1 ALY1        0.0000
     14 H2          0.4480    3.0090   -0.0310 H         1 ALY1        0.0000
     15 O2          1.2260    2.7400   -1.9090 O.3       1 ALY1        0.0000
     16 HO2         0.5030    2.6580   -2.5450 H         1 ALY1        0.0000
     17 C3         -0.3650    1.1460   -0.8540 C.3       1 ALY1        0.0000
     18 H3         -1.3280    1.5880   -0.5160 H         1 ALY1        0.0000
     19 O3         -0.5520    0.6860   -2.1760 O.3       1 ALY1        0.0000
     20 HO3         0.2770    0.2850   -2.4720 H         1 ALY1        0.0000
@<TRIPOS>BOND
     1   16   15 1 
     2   20   19 1 
     3   19   17 1 
     4   15   13 1 
     5   10    8 1 
     6   12   11 1 
     7   17   13 1 
     8   17   18 1 
     9   17    6 1 
    10   13   14 1 
    11   13    2 1 
    12    3    2 1 
    13   11    8 1 
    14    8    6 1 
    15    8    9 1 
    16    1    2 1 
    17    1    6 1 
    18    2    4 1 
    19    6    7 1 
    20    4    5 1 
