@<TRIPOS>MOLECULE
C:\Users\Praveer\PycharmProjects\pdb_to_mol2_converter\data\pdb\alyxp.pdb
   20    20     0     0     0
SMALL
GASTEIGER

@<TRIPOS>ATOM
      1 C1          1.4030    0.0650    0.0280 C.3       1 ALY1        0.0000
      2 H1          1.7870   -0.4840   -0.8640 H         1 ALY1        0.0000
      3 O1          1.9260   -0.5470    1.1790 O.3       1 ALY1        0.0000
      4 HO1         1.6860   -1.4760    1.1270 H         1 ALY1        0.0000
      5 C5         -0.6410    0.7920    1.0300 C.3       1 ALY1        0.0000
      6 H51        -0.3820    0.3620    2.0230 H         1 ALY1        0.0000
      7 H52        -1.7460    0.7140    0.9180 H         1 ALY1        0.0000
      8 O5         -0.0240    0.0070   -0.0050 O.3       1 ALY1        0.0000
      9 C2          1.8790    1.5120   -0.0650 C.3       1 ALY1        0.0000
     10 H2          1.5180    1.9090   -1.0450 H         1 ALY1        0.0000
     11 O2          3.3090    1.6190   -0.0740 O.3       1 ALY1        0.0000
     12 HO2         3.6510    1.0330    0.6140 H         1 ALY1        0.0000
     13 C3          1.2690    2.3660    1.0330 C.3       1 ALY1        0.0000
     14 H3          1.6180    1.9720    2.0180 H         1 ALY1        0.0000
     15 O3          1.7030    3.7230    0.9360 O.3       1 ALY1        0.0000
     16 HO3         2.6170    3.6990    0.6210 H         1 ALY1        0.0000
     17 C4         -0.2400    2.2570    0.9910 C.3       1 ALY1        0.0000
     18 H4         -0.6630    2.7710    1.8870 H         1 ALY1        0.0000
     19 O4         -0.7790    2.8900   -0.1610 O.3       1 ALY1        0.0000
     20 HO4        -0.3470    3.7510   -0.2310 H         1 ALY1        0.0000
@<TRIPOS>BOND
     1   10    9 1 
     2    2    1 1 
     3   20   19 1 
     4   19   17 1 
     5   11    9 1 
     6   11   12 1 
     7    9    1 1 
     8    9   13 1 
     9    8    1 1 
    10    8    5 1 
    11    1    3 1 
    12   16   15 1 
    13    7    5 1 
    14   15   13 1 
    15   17    5 1 
    16   17   13 1 
    17   17   18 1 
    18    5    6 1 
    19   13   14 1 
    20    4    3 1 
