@<TRIPOS>MOLECULE
C:\Users\Praveer\PycharmProjects\pdb_to_mol2_converter\data\pdb\amann.pdb
   25    25     0     0     0
SMALL
GASTEIGER

@<TRIPOS>ATOM
      1 C1          1.3870    0.0170    0.0090 C.3       1 AMA1        0.0000
      2 H1          1.7270   -0.4790   -0.9300 H         1 AMA1        0.0000
      3 O1          1.8880   -0.7120    1.0950 O.3       1 AMA1        0.0000
      4 HO1         1.5950   -1.6210    0.9930 H         1 AMA1        0.0000
      5 C5         -0.5940    0.7440    1.1490 C.3       1 AMA1        0.0000
      6 H5         -0.2790    0.2180    2.0830 H         1 AMA1        0.0000
      7 O5         -0.0430    0.0700   -0.0050 O.3       1 AMA1        0.0000
      8 C2          1.9650    1.4290    0.0260 C.3       1 AMA1        0.0000
      9 H2          3.0720    1.3330    0.1620 H         1 AMA1        0.0000
     10 N2          1.7920    2.1670   -1.2270 N.3       1 AMA1        0.0000
     11 HN21        0.9170    2.0460   -1.6990 H         1 AMA1        0.0000
     12 HN22        2.6050    2.3040   -1.7940 H         1 AMA1        0.0000
     13 C3          1.4280    2.1860    1.2160 C.3       1 AMA1        0.0000
     14 H3          1.7750    1.6910    2.1550 H         1 AMA1        0.0000
     15 O3          1.9430    3.5130    1.2090 O.3       1 AMA1        0.0000
     16 HO3         2.0110    3.7530    0.2740 H         1 AMA1        0.0000
     17 C4         -0.0840    2.1780    1.2000 C.3       1 AMA1        0.0000
     18 H4         -0.4410    2.7090    0.2860 H         1 AMA1        0.0000
     19 O4         -0.6090    2.8600    2.3310 O.3       1 AMA1        0.0000
     20 HO4        -0.0210    3.6090    2.5020 H         1 AMA1        0.0000
     21 C6         -2.1040    0.6610    1.0620 C.3       1 AMA1        0.0000
     22 H61        -2.4630    1.1980    0.1550 H         1 AMA1        0.0000
     23 H62        -2.5620    1.1500    1.9510 H         1 AMA1        0.0000
     24 O6         -2.5520   -0.6950    1.0120 O.3       1 AMA1        0.0000
     25 HO6        -2.1480   -1.1210    0.2490 H         1 AMA1        0.0000
@<TRIPOS>BOND
     1   12   10 1 
     2   11   10 1 
     3   10    8 1 
     4    2    1 1 
     5    7    1 1 
     6    7    5 1 
     7    1    8 1 
     8    1    3 1 
     9    8    9 1 
    10    8   13 1 
    11   22   21 1 
    12   25   24 1 
    13   16   15 1 
    14   18   17 1 
    15    4    3 1 
    16   24   21 1 
    17   21    5 1 
    18   21   23 1 
    19    5   17 1 
    20    5    6 1 
    21   17   13 1 
    22   17   19 1 
    23   15   13 1 
    24   13   14 1 
    25   19   20 1 
