@<TRIPOS>MOLECULE
C:\Users\Praveer\PycharmProjects\pdb_to_mol2_converter\data\pdb\amanna.pdb
   30    30     0     0     0
SMALL
GASTEIGER

@<TRIPOS>ATOM
      1 C1          1.4360    0.0760    0.0440 C.3       1 AMA1        0.0000
      2 H1          1.8150   -0.4040   -0.8870 H         1 AMA1        0.0000
      3 O1          1.9660   -0.6160    1.1380 O.3       1 AMA1        0.0000
      4 HO1         1.7050   -1.5360    1.0600 H         1 AMA1        0.0000
      5 C5         -0.5970    0.6940    1.1670 C.3       1 AMA1        0.0000
      6 H5         -0.3230    0.1050    2.0740 H         1 AMA1        0.0000
      7 O5          0.0070    0.0900   -0.0030 O.3       1 AMA1        0.0000
      8 C2          1.8960    1.5220    0.0590 C.3       1 AMA1        0.0000
      9 H2          3.0140    1.5140    0.0910 H         1 AMA1        0.0000
     10 N           1.4830    2.1960   -1.1690 N.am      1 AMA1        0.0000
     11 HN          0.7390    1.7700   -1.6790 H         1 AMA1        0.0000
     12 C           2.0140    3.3320   -1.6270 C.2       1 AMA1        0.0000
     13 O           2.9090    3.9130   -1.0220 O.2       1 AMA1        0.0000
     14 CT          1.4520    3.8840   -2.9080 C.3       1 AMA1        0.0000
     15 HT1         0.4240    3.5070   -3.0860 H         1 AMA1        0.0000
     16 HT2         2.1030    3.5930   -3.7580 H         1 AMA1        0.0000
     17 HT3         1.4250    4.9930   -2.8430 H         1 AMA1        0.0000
     18 C3          1.3940    2.1800    1.3300 C.3       1 AMA1        0.0000
     19 H3          1.7800    1.6170    2.2160 H         1 AMA1        0.0000
     20 O3          1.8820    3.5110    1.4740 O.3       1 AMA1        0.0000
     21 HO3         2.2950    3.7910    0.6350 H         1 AMA1        0.0000
     22 C4         -0.1130    2.1310    1.3560 C.3       1 AMA1        0.0000
     23 H4         -0.5090    2.7480    0.5160 H         1 AMA1        0.0000
     24 O4         -0.6220    2.6810    2.5630 O.3       1 AMA1        0.0000
     25 HO4        -0.0220    3.3980    2.8070 H         1 AMA1        0.0000
     26 C6         -2.0980    0.6240    0.9980 C.3       1 AMA1        0.0000
     27 H61        -2.4090    1.2290    0.1150 H         1 AMA1        0.0000
     28 H62        -2.5980    1.0530    1.8960 H         1 AMA1        0.0000
     29 O6         -2.5500   -0.7200    0.8240 O.3       1 AMA1        0.0000
     30 HO6        -2.1170   -1.0940    0.0510 H         1 AMA1        0.0000
@<TRIPOS>BOND
     1   16   14 1 
     2   15   14 1 
     3   14   17 1 
     4   14   12 1 
     5   11   10 1 
     6   12   10 am
     7   12   13 2 
     8   10    8 1 
     9    2    1 1 
    10    7    1 1 
    11    7    5 1 
    12    1    8 1 
    13    1    3 1 
    14   30   29 1 
    15    8    9 1 
    16    8   18 1 
    17   27   26 1 
    18   23   22 1 
    19   21   20 1 
    20   29   26 1 
    21   26    5 1 
    22   26   28 1 
    23    4    3 1 
    24    5   22 1 
    25    5    6 1 
    26   18   22 1 
    27   18   20 1 
    28   18   19 1 
    29   22   24 1 
    30   24   25 1 
