@<TRIPOS>MOLECULE
C:\Users\Praveer\PycharmProjects\pdb_to_mol2_converter\data\pdb\aman.pdb
   24    24     0     0     0
SMALL
GASTEIGER

@<TRIPOS>ATOM
      1 C1          1.3690   -0.0040   -0.0110 C.3       1 AMA1        0.0000
      2 H1          1.6890   -0.5050   -0.9550 H         1 AMA1        0.0000
      3 O1          1.8900   -0.7420    1.0590 O.3       1 AMA1        0.0000
      4 HO1         1.5750   -1.6450    0.9640 H         1 AMA1        0.0000
      5 C5         -0.5990    0.7250    1.1470 C.3       1 AMA1        0.0000
      6 H5         -0.2750    0.2080    2.0820 H         1 AMA1        0.0000
      7 O5         -0.0610    0.0370   -0.0030 O.3       1 AMA1        0.0000
      8 C2          1.9630    1.4000    0.0120 C.3       1 AMA1        0.0000
      9 H2          3.0690    1.3100    0.1440 H         1 AMA1        0.0000
     10 O2          1.7400    2.1050   -1.2180 O.3       1 AMA1        0.0000
     11 HO2         2.5310    2.0830   -1.7690 H         1 AMA1        0.0000
     12 C3          1.4220    2.1760    1.1970 C.3       1 AMA1        0.0000
     13 H3          1.7590    1.6680    2.1340 H         1 AMA1        0.0000
     14 O3          1.9340    3.5080    1.2350 O.3       1 AMA1        0.0000
     15 HO3         1.8580    3.8660    0.3420 H         1 AMA1        0.0000
     16 C4         -0.0930    2.1600    1.1800 C.3       1 AMA1        0.0000
     17 H4         -0.4490    2.6770    0.2560 H         1 AMA1        0.0000
     18 O4         -0.6230    2.8530    2.3030 O.3       1 AMA1        0.0000
     19 HO4        -0.0240    3.5880    2.4890 H         1 AMA1        0.0000
     20 C6         -2.1100    0.6370    1.0720 C.3       1 AMA1        0.0000
     21 H61        -2.4760    1.1640    0.1620 H         1 AMA1        0.0000
     22 H62        -2.5640    1.1340    1.9600 H         1 AMA1        0.0000
     23 O6         -2.5550   -0.7200    1.0390 O.3       1 AMA1        0.0000
     24 HO6        -2.1630   -1.1460    0.2690 H         1 AMA1        0.0000
@<TRIPOS>BOND
     1   11   10 1 
     2   10    8 1 
     3    2    1 1 
     4    1    7 1 
     5    1    8 1 
     6    1    3 1 
     7    7    5 1 
     8    8    9 1 
     9    8   12 1 
    10   21   20 1 
    11   17   16 1 
    12   24   23 1 
    13   15   14 1 
    14    4    3 1 
    15   23   20 1 
    16   20    5 1 
    17   20   22 1 
    18    5   16 1 
    19    5    6 1 
    20   16   12 1 
    21   16   18 1 
    22   12   14 1 
    23   12   13 1 
    24   18   19 1 
