@<TRIPOS>MOLECULE
C:\Users\Praveer\PycharmProjects\pdb_to_mol2_converter\data\pdb\amana.pdb
   22    22     0     0     0
SMALL
GASTEIGER

@<TRIPOS>ATOM
      1 C1          1.4710   -0.0640    0.0320 C.3       1 AMA1        0.0000
      2 H1          1.8640   -0.6040   -0.8620 H         1 AMA1        0.0000
      3 O1          1.9820   -0.6900    1.1770 O.3       1 AMA1        0.0000
      4 HO1         1.6480   -1.5900    1.1690 H         1 AMA1        0.0000
      5 C5         -0.5620    0.6690    1.0700 C.3       1 AMA1        0.0000
      6 H5         -0.4170    0.0700    1.9930 H         1 AMA1        0.0000
      7 O5          0.0470   -0.0580   -0.0350 O.3       1 AMA1        0.0000
      8 C2          1.9160    1.3840   -0.0400 C.3       1 AMA1        0.0000
      9 H2          3.0310    1.4100   -0.0780 H         1 AMA1        0.0000
     10 O2          1.4210    2.0040   -1.2360 O.3       1 AMA1        0.0000
     11 HO2         0.4780    1.7740   -1.3110 H         1 AMA1        0.0000
     12 C3          1.4730    2.1480    1.1930 C.3       1 AMA1        0.0000
     13 H3          1.8960    1.6630    2.1040 H         1 AMA1        0.0000
     14 O3          1.9770    3.4820    1.1630 O.3       1 AMA1        0.0000
     15 HO3         1.6870    3.8750    0.3290 H         1 AMA1        0.0000
     16 C4         -0.0410    2.0930    1.2980 C.3       1 AMA1        0.0000
     17 H4         -0.4470    2.7580    0.4950 H         1 AMA1        0.0000
     18 O4         -0.5290    2.5910    2.5420 O.3       1 AMA1        0.0000
     19 HO4        -1.4680    2.3140    2.5770 H         1 AMA1        0.0000
     20 C6         -2.0720    0.8530    0.8480 C.2       1 AMA1        0.0000
     21 O61        -2.7290    0.8910    1.9280 O.co2     1 AMA1        0.0000
     22 O62        -2.4390    1.0840   -0.3230 O.co2     1 AMA1        0.0000
@<TRIPOS>BOND
     1   11   10 1 
     2   10    8 1 
     3    2    1 1 
     4   22   20 ar
     5    9    8 1 
     6    8    1 1 
     7    8   12 1 
     8    7    1 1 
     9    7    5 1 
    10    1    3 1 
    11   15   14 1 
    12   17   16 1 
    13   20    5 1 
    14   20   21 ar
    15    5   16 1 
    16    5    6 1 
    17   14   12 1 
    18    4    3 1 
    19   12   16 1 
    20   12   13 1 
    21   16   18 1 
    22   18   19 1 
