@<TRIPOS>MOLECULE
C:\Users\Praveer\PycharmProjects\pdb_to_mol2_converter\data\pdb\amba.pdb
   21    20     0     0     0
SMALL
GASTEIGER

@<TRIPOS>ATOM
      1 C4          1.1110   -0.0040    0.0010 C.3       1 AMB1        0.0000
      2 H41         0.0010   -0.0030   -0.0020 H         1 AMB1        0.0000
      3 H42         1.4490   -0.5550    0.9040 H         1 AMB1        0.0000
      4 H43         1.4600   -0.5530   -0.8990 H         1 AMB1        0.0000
      5 C5          1.6640    1.4380    0.0060 C.3       1 AMB1        0.0000
      6 H5          1.2350    1.9900    0.8750 H         1 AMB1        0.0000
      7 O5          1.3460    2.1140   -1.2070 O.3       1 AMB1        0.0000
      8 C6         -0.0280    2.4730   -1.2940 C.3       1 AMB1        0.0000
      9 H61        -0.3410    3.0540   -0.4000 H         1 AMB1        0.0000
     10 H62        -0.6720    1.5740   -1.3970 H         1 AMB1        0.0000
     11 H63        -0.1780    3.1090   -2.1940 H         1 AMB1        0.0000
     12 C7          3.1760    1.3800    0.1550 C.3       1 AMB1        0.0000
     13 C10         3.6520    2.7930    0.3680 C.2       1 AMB1        0.0000
     14 O10         4.1030    3.2360    1.4060 O.2       1 AMB1        0.0000
     15 H10         3.5760    3.4690   -0.5090 H         1 AMB1        0.0000
     16 H7          3.4410    0.7810    1.0560 H         1 AMB1        0.0000
     17 N8          3.8430    0.8470   -1.0100 N.am      1 AMB1        0.0000
     18 H8          3.3050    0.7860   -1.8470 H         1 AMB1        0.0000
     19 C9          5.1260    0.4890   -1.0410 C.2       1 AMB1        0.0000
     20 O9          5.6370    0.0530   -2.0650 O.2       1 AMB1        0.0000
     21 H9          5.6380    0.6310   -0.0830 H         1 AMB1        0.0000
@<TRIPOS>BOND
     1   11    8 1 
     2   20   19 2 
     3   18   17 1 
     4   10    8 1 
     5    8    7 1 
     6    8    9 1 
     7    7    5 1 
     8   19   17 am
     9   19   21 1 
    10   17   12 1 
    11    4    1 1 
    12   15   13 1 
    13    2    1 1 
    14    1    5 1 
    15    1    3 1 
    16    5   12 1 
    17    5    6 1 
    18   12   13 1 
    19   12   16 1 
    20   13   14 2 
