@<TRIPOS>MOLECULE
C:\Users\Praveer\PycharmProjects\pdb_to_mol2_converter\data\pdb\ambz.pdb
   20    20     0     0     0
SMALL
GASTEIGER

@<TRIPOS>ATOM
      1 C1          1.3410   -0.0180    0.0120 C.ar      1 AMB1        0.0000
      2 H1          1.8650   -0.9630    0.0190 H         1 AMB1        0.0000
      3 C2          2.0620    1.1810    0.0120 C.ar      1 AMB1        0.0000
      4 H2          3.1430    1.1620    0.0150 H         1 AMB1        0.0000
      5 C3          1.3840    2.4060    0.0120 C.ar      1 AMB1        0.0000
      6 H3          1.9410    3.3320    0.0180 H         1 AMB1        0.0000
      7 C4         -0.0160    2.4300    0.0060 C.ar      1 AMB1        0.0000
      8 H4         -0.5330    3.3780    0.0090 H         1 AMB1        0.0000
      9 C5         -0.7580    1.2340   -0.0130 C.ar      1 AMB1        0.0000
     10 C6         -0.0600    0.0070    0.0070 C.ar      1 AMB1        0.0000
     11 H6         -0.6020   -0.9250    0.0140 H         1 AMB1        0.0000
     12 C7         -2.2770    1.3410    0.0090 C.3       1 AMB1        0.0000
     13 H71        -2.5790    2.2390   -0.5770 H         1 AMB1        0.0000
     14 H72        -2.5690    1.5120    1.0700 H         1 AMB1        0.0000
     15 N8         -2.9990    0.1550   -0.5120 N.3       1 AMB1        0.0000
     16 H8         -2.6800   -0.7180   -0.0850 H         1 AMB1        0.0000
     17 C9         -2.8320    0.0020   -1.9630 C.3       1 AMB1        0.0000
     18 H91        -1.7680   -0.1610   -2.2420 H         1 AMB1        0.0000
     19 H92        -3.1880    0.9110   -2.4980 H         1 AMB1        0.0000
     20 H93        -3.4230   -0.8620   -2.3410 H         1 AMB1        0.0000
@<TRIPOS>BOND
     1   19   17 1 
     2   20   17 1 
     3   18   17 1 
     4   17   15 1 
     5   13   12 1 
     6   15   16 1 
     7   15   12 1 
     8    9    7 ar
     9    9   10 ar
    10    9   12 1 
    11    7    8 1 
    12    7    5 ar
    13   10    1 ar
    14   10   11 1 
    15   12   14 1 
    16    1    3 ar
    17    1    2 1 
    18    3    5 ar
    19    3    4 1 
    20    5    6 1 
