@<TRIPOS>MOLECULE
C:\Users\Praveer\PycharmProjects\pdb_to_mol2_converter\data\pdb\amcp.pdb
   15    15     0     0     0
SMALL
GASTEIGER

@<TRIPOS>ATOM
      1 C1          1.4630    0.0260    0.0060 C.3       1 AMC1        0.0000
      2 H2          1.9470   -0.7770   -0.5310 H         1 AMC1        0.0000
      3 C3         -0.0610    0.0420   -0.0610 C.3       1 AMC1        0.0000
      4 H4         -0.5310   -0.7570   -0.6160 H         1 AMC1        0.0000
      5 H5         -0.5480    1.0040   -0.0670 H         1 AMC1        0.0000
      6 C6          0.6420   -0.3650    1.2310 C.3       1 AMC1        0.0000
      7 H7          0.5830    0.3400    2.0450 H         1 AMC1        0.0000
      8 H8          0.5960   -1.4160    1.4750 H         1 AMC1        0.0000
      9 C9          2.2660    1.3310   -0.0320 C.3       1 AMC1        0.0000
     10 H10         1.6920    2.1480    0.4350 H         1 AMC1        0.0000
     11 H11         2.5090    1.6080   -1.0700 H         1 AMC1        0.0000
     12 N12         3.5380    1.1640    0.7250 N.4       1 AMC1        0.0000
     13 H13         4.1180    0.4280    0.2750 H         1 AMC1        0.0000
     14 H14         3.3150    0.8730    1.6990 H         1 AMC1        0.0000
     15 H15         4.0660    2.0600    0.7420 H         1 AMC1        0.0000
@<TRIPOS>BOND
     1   11    9 1 
     2    4    3 1 
     3    2    1 1 
     4    5    3 1 
     5    3    1 1 
     6    3    6 1 
     7    9    1 1 
     8    9   10 1 
     9    9   12 1 
    10    1    6 1 
    11   13   12 1 
    12   12   15 1 
    13   12   14 1 
    14    6    8 1 
    15    6    7 1 
