@<TRIPOS>MOLECULE
C:\Users\Praveer\PycharmProjects\pdb_to_mol2_converter\data\pdb\amdn.pdb
   11    10     0     0     0
SMALL
GASTEIGER

@<TRIPOS>ATOM
      1 C1          1.3230    0.0080    0.0260 C.2       1 AMD1        0.0000
      2 C2          2.0330    1.3180    0.0080 C.3       1 AMD1        0.0000
      3 H3          1.4340    2.0960    0.5250 H         1 AMD1        0.0000
      4 H4          2.2040    1.6340   -1.0420 H         1 AMD1        0.0000
      5 H5          3.0120    1.2410    0.5240 H         1 AMD1        0.0000
      6 N6          0.0130   -0.0120    0.0020 N.2       1 AMD1        0.0000
      7 H7         -0.4980    0.8450   -0.0070 H         1 AMD1        0.0000
      8 H8         -0.4740   -0.8810   -0.0110 H         1 AMD1        0.0000
      9 N9          2.0210   -1.1000    0.0020 N.pl3     1 AMD1        0.0000
     10 H10         3.0190   -1.0600   -0.0070 H         1 AMD1        0.0000
     11 H11         1.5600   -1.9830   -0.0110 H         1 AMD1        0.0000
@<TRIPOS>BOND
     1    4    2 1 
     2    8    6 1 
     3   11    9 1 
     4    7    6 1 
     5   10    9 1 
     6    6    1 2 
     7    9    1 1 
     8    2    1 1 
     9    2    5 1 
    10    2    3 1 
