@<TRIPOS>MOLECULE
C:\Users\Praveer\PycharmProjects\pdb_to_mol2_converter\data\pdb\amet.pdb
    8     7     0     0     0
SMALL
GASTEIGER

@<TRIPOS>ATOM
      1 C1          0.0210   -0.0040   -0.0000 C.2       1 AME1        0.0000
      2 H2         -0.5700   -0.9310   -0.0000 H         1 AME1        0.0000
      3 H3         -0.5200    0.9540    0.0000 H         1 AME1        0.0000
      4 C4          1.3540   -0.0310    0.0000 C.2       1 AME1        0.0000
      5 H5          1.9030   -0.9970   -0.0000 H         1 AME1        0.0000
      6 N6          2.1440    1.1160    0.0000 N.pl3     1 AME1        0.0000
      7 H7          1.7200    2.0370   -0.0000 H         1 AME1        0.0000
      8 H8          3.1580    1.0850   -0.0000 H         1 AME1        0.0000
@<TRIPOS>BOND
     1    1    2 1 
     2    1    3 1 
     3    1    4 2 
     4    4    5 1 
     5    4    6 1 
     6    6    7 1 
     7    6    8 1 
