@<TRIPOS>MOLECULE
C:\Users\Praveer\PycharmProjects\pdb_to_mol2_converter\data\pdb\amm1.pdb
    4     3     0     0     0
SMALL
GASTEIGER

@<TRIPOS>ATOM
      1 N1          0.0000    0.0000    0.1170 N.3       1 AMM1        0.0000
      2 H11         0.0000    0.9400   -0.2720 H         1 AMM1        0.0000
      3 H12         0.8140   -0.4700   -0.2720 H         1 AMM1        0.0000
      4 H13        -0.8140   -0.4700   -0.2720 H         1 AMM1        0.0000
@<TRIPOS>BOND
     1    2    1 1 
     2    3    1 1 
     3    4    1 1 
