@<TRIPOS>MOLECULE
C:\Users\Praveer\PycharmProjects\pdb_to_mol2_converter\data\pdb\amol.pdb
   15    14     0     0     0
SMALL
GASTEIGER

@<TRIPOS>ATOM
      1 C1          1.5380    0.0580   -0.0250 C.3       1 AMO1        0.0000
      2 C2         -0.0390   -0.0250    0.0080 C.2       1 AMO1        0.0000
      3 OH          2.0280   -0.5060   -1.2370 O.3       1 AMO1        0.0000
      4 HO          1.1600   -0.5750   -1.6690 H         1 AMO1        0.0000
      5 OM          1.9180    1.4330    0.1080 O.3       1 AMO1        0.0000
      6 CM          3.3260    1.6580    0.1050 C.3       1 AMO1        0.0000
      7 HM1         3.8050    1.1570   -0.7630 H         1 AMO1        0.0000
      8 HM2         3.7860    1.2930    1.0470 H         1 AMO1        0.0000
      9 HM3         3.5110    2.7490    0.0250 H         1 AMO1        0.0000
     10 O1         -0.6080    0.3180    1.0810 O.co2     1 AMO1        0.0000
     11 O2         -0.6060   -0.4450   -1.0450 O.co2     1 AMO1        0.0000
     12 C0          2.0920   -0.8010    1.1290 C.3       1 AMO1        0.0000
     13 H01         1.6500   -1.8180    1.0840 H         1 AMO1        0.0000
     14 H02         1.8180   -0.3380    2.1010 H         1 AMO1        0.0000
     15 H03         3.1930   -0.8940    1.0610 H         1 AMO1        0.0000
@<TRIPOS>BOND
     1    4    3 1 
     2    3    1 1 
     3   11    2 ar
     4    7    6 1 
     5    1    2 1 
     6    1    5 1 
     7    1   12 1 
     8    2   10 ar
     9    9    6 1 
    10    6    5 1 
    11    6    8 1 
    12   15   12 1 
    13   13   12 1 
    14   12   14 1 
