@<TRIPOS>MOLECULE
C:\Users\Praveer\PycharmProjects\pdb_to_mol2_converter\data\pdb\amop.pdb
   14    13     0     0     0
SMALL
GASTEIGER

@<TRIPOS>ATOM
      1 C1          1.5150    0.0340    0.0050 C.3       1 AMO1        0.0000
      2 C2         -0.0380   -0.0460    0.0060 C.2       1 AMO1        0.0000
      3 H1          1.8470   -0.4440   -0.9410 H         1 AMO1        0.0000
      4 OM          2.0310    1.3720    0.0680 O.3       1 AMO1        0.0000
      5 CM          3.3020    1.4880   -0.5560 C.3       1 AMO1        0.0000
      6 HM1         3.2240    1.2050   -1.6280 H         1 AMO1        0.0000
      7 HM2         4.0470    0.8380   -0.0520 H         1 AMO1        0.0000
      8 HM3         3.6400    2.5430   -0.4880 H         1 AMO1        0.0000
      9 O1         -0.6500    0.4960    0.9650 O.co2     1 AMO1        0.0000
     10 O2         -0.5460   -0.6810   -0.9600 O.co2     1 AMO1        0.0000
     11 C0          2.0850   -0.7850    1.1960 C.3       1 AMO1        0.0000
     12 H01         1.6940   -1.8240    1.1640 H         1 AMO1        0.0000
     13 H02         1.7610   -0.3150    2.1490 H         1 AMO1        0.0000
     14 H03         3.1910   -0.8150    1.1660 H         1 AMO1        0.0000
@<TRIPOS>BOND
     1    6    5 1 
     2   10    2 ar
     3    3    1 1 
     4    5    8 1 
     5    5    7 1 
     6    5    4 1 
     7    1    2 1 
     8    1    4 1 
     9    1   11 1 
    10    2    9 ar
    11   12   11 1 
    12   14   11 1 
    13   11   13 1 
