@<TRIPOS>MOLECULE
C:\Users\Praveer\PycharmProjects\pdb_to_mol2_converter\data\pdb\amp.pdb
   35    37     0     0     0
SMALL
GASTEIGER

@<TRIPOS>ATOM
      1 C4'        -0.5010   -1.4310    0.8280 C.3       1 AMP1        0.0000
      2 H4'        -0.1910   -2.0030   -0.0770 H         1 AMP1        0.0000
      3 O4'         0.1090   -2.0440    1.9520 O.3       1 AMP1        0.0000
      4 C1'        -0.8480   -2.9410    2.4980 C.3       1 AMP1        0.0000
      5 H1'        -0.4360   -3.9740    2.5210 H         1 AMP1        0.0000
      6 C5         -1.4430   -2.6460    6.0640 C.ar      1 AMP1        0.0000
      7 N7         -1.7840   -1.3910    5.7220 N.ar      1 AMP1        0.0000
      8 C8         -1.6060   -1.3560    4.3730 C.ar      1 AMP1        0.0000
      9 H8         -1.7750   -0.4670    3.7880 H         1 AMP1        0.0000
     10 N9         -1.1710   -2.5500    3.8820 N.ar      1 AMP1        0.0000
     11 N1         -1.0260   -4.5630    7.3740 N.2       1 AMP1        0.0000
     12 C2         -0.6510   -5.2460    6.2420 C.2       1 AMP1        0.0000
     13 H2         -0.3360   -6.2780    6.3170 H         1 AMP1        0.0000
     14 N3         -0.6740   -4.6300    5.0200 N.pl3     1 AMP1        0.0000
     15 C4         -1.0720   -3.3360    4.9660 C.ar      1 AMP1        0.0000
     16 C6         -1.4270   -3.2570    7.3100 C.3       1 AMP1        0.0000
     17 N6         -1.8110   -2.5650    8.4820 N.3       1 AMP1        0.0000
     18 H61        -2.1160   -1.5820    8.4370 H         1 AMP1        0.0000
     19 H62        -1.7910   -3.0430    9.3950 H         1 AMP1        0.0000
     20 C2'        -2.0710   -2.9550    1.5700 C.3       1 AMP1        0.0000
     21 H2''       -3.0150   -3.2400    2.0900 H         1 AMP1        0.0000
     22 O2'        -1.8290   -3.8760    0.5320 O.3       1 AMP1        0.0000
     23 H2'        -2.6890   -4.0050    0.0530 H         1 AMP1        0.0000
     24 C3'        -2.0120   -1.5540    1.0260 C.3       1 AMP1        0.0000
     25 H3'        -2.3830   -0.8550    1.8000 H         1 AMP1        0.0000
     26 O3'        -2.7480   -1.4030   -0.1600 O.3       1 AMP1        0.0000
     27 H3T        -2.8030   -0.4280   -0.3370 H         1 AMP1        0.0000
     28 C5'        -0.0470    0.0220    0.6760 C.3       1 AMP1        0.0000
     29 H5'        -0.3370    0.5840    1.5920 H         1 AMP1        0.0000
     30 H5''       -0.5550    0.4450   -0.2210 H         1 AMP1        0.0000
     31 O5'         1.3490    0.0460    0.5120 O.3       1 AMP1        0.0000
     32 PA          1.8290    1.6920    0.1650 P.3       1 AMP1        0.0000
     33 O1A         1.0960    2.8410    1.2410 O.3       1 AMP1        0.0000
     34 O2A         1.3680    2.0300   -1.2780 O.2       1 AMP1        0.0000
     35 O3A         3.5570    1.8460    0.1870 O.3       1 AMP1        0.0000
@<TRIPOS>BOND
     1   34   32 2 
     2   27   26 1 
     3   30   28 1 
     4   26   24 1 
     5    2    1 1 
     6   23   22 1 
     7   32   35 1 
     8   32   31 1 
     9   32   33 1 
    10   31   28 1 
    11   22   20 1 
    12   28    1 1 
    13   28   29 1 
    14    1   24 1 
    15    1    3 1 
    16   24   20 1 
    17   24   25 1 
    18   20   21 1 
    19   20    4 1 
    20    3    4 1 
    21    4    5 1 
    22    4   10 1 
    23    9    8 1 
    24   10    8 ar
    25   10   15 ar
    26    8    7 ar
    27   15   14 1 
    28   15    6 ar
    29   14   12 1 
    30    7    6 ar
    31    6   16 1 
    32   12   13 1 
    33   12   11 2 
    34   16   11 1 
    35   16   17 1 
    36   18   17 1 
    37   17   19 1 
