@<TRIPOS>MOLECULE
C:\Users\Praveer\PycharmProjects\pdb_to_mol2_converter\data\pdb\ampu.pdb
   20    21     0     0     0
SMALL
GASTEIGER

@<TRIPOS>ATOM
      1 N9          1.3580    0.0030   -0.0100 N.ar      1 AMP1        0.0000
      2 H9          1.8750   -0.8630    0.0170 H         1 AMP1        0.0000
      3 C8          1.8610    1.2940   -0.0110 C.ar      1 AMP1        0.0000
      4 H8          2.9240    1.5070   -0.0020 H         1 AMP1        0.0000
      5 C7          0.7930    2.1580   -0.0190 C.ar      1 AMP1        0.0000
      6 C5         -0.3830    1.3340    0.0000 C.ar      1 AMP1        0.0000
      7 C6         -1.7560    1.5790    0.0380 C.3       1 AMP1        0.0000
      8 H6         -2.1590    2.5850    0.0630 H         1 AMP1        0.0000
      9 N1         -2.6420    0.5800    0.0300 N.2       1 AMP1        0.0000
     10 C2         -2.1330   -0.6990    0.0190 C.2       1 AMP1        0.0000
     11 H2         -2.8550   -1.5180    0.0180 H         1 AMP1        0.0000
     12 N3         -0.8110   -1.0430   -0.0040 N.pl3     1 AMP1        0.0000
     13 C4          0.0040    0.0010   -0.0030 C.ar      1 AMP1        0.0000
     14 C10         0.8350    3.6430   -0.1000 C.3       1 AMP1        0.0000
     15 H11         1.8270    4.0240    0.1960 H         1 AMP1        0.0000
     16 H12         0.0660    4.0810    0.5550 H         1 AMP1        0.0000
     17 N11         0.5700    4.0680   -1.5060 N.4       1 AMP1        0.0000
     18 H111       -0.3490    3.6890   -1.8120 H         1 AMP1        0.0000
     19 H112        1.3120    3.6810   -2.1230 H         1 AMP1        0.0000
     20 H113        0.5630    5.1050   -1.5760 H         1 AMP1        0.0000
@<TRIPOS>BOND
     1   19   17 1 
     2   18   17 1 
     3   20   17 1 
     4   17   14 1 
     5   14    5 1 
     6   14   15 1 
     7   14   16 1 
     8    5    3 ar
     9    5    6 ar
    10    3    1 ar
    11    3    4 1 
    12    1   13 ar
    13    1    2 1 
    14   12   13 1 
    15   12   10 1 
    16   13    6 ar
    17    6    7 1 
    18   11   10 1 
    19   10    9 2 
    20    9    7 1 
    21    7    8 1 
