@<TRIPOS>MOLECULE
C:\Users\Praveer\PycharmProjects\pdb_to_mol2_converter\data\pdb\amu2gc.pdb
   39    39     0     0     0
SMALL
GASTEIGER

@<TRIPOS>ATOM
      1 C1          1.4510    0.0290    0.0630 C.3       1 AMU1        0.0000
      2 H1          1.7770   -0.5570   -0.8300 H         1 AMU1        0.0000
      3 O1          1.8930   -0.6310    1.2150 O.3       1 AMU1        0.0000
      4 HO1         1.5340   -1.5210    1.1880 H         1 AMU1        0.0000
      5 C5         -0.5000    0.9310    1.1220 C.3       1 AMU1        0.0000
      6 H5         -0.2190    0.4470    2.0910 H         1 AMU1        0.0000
      7 O5          0.0310    0.1700    0.0150 O.3       1 AMU1        0.0000
      8 C2          2.0970    1.3900   -0.0040 C.3       1 AMU1        0.0000
      9 H2          1.7520    1.8500   -0.9680 H         1 AMU1        0.0000
     10 N2          3.5550    1.3400    0.0020 N.am      1 AMU1        0.0000
     11 HN2         3.9870    1.0520    0.8540 H         1 AMU1        0.0000
     12 C           4.3580    1.7940   -0.9740 C.2       1 AMU1        0.0000
     13 O           3.9390    2.0350   -2.1020 O.2       1 AMU1        0.0000
     14 C10         5.8400    2.0060   -0.5880 C.3       1 AMU1        0.0000
     15 H10         6.1700    2.9610   -1.0510 H         1 AMU1        0.0000
     16 H11         6.4300    1.1760   -1.0320 H         1 AMU1        0.0000
     17 O13         6.0810    2.0540    0.8310 O.3       1 AMU1        0.0000
     18 HO13        5.6760    2.8450    1.2140 H         1 AMU1        0.0000
     19 C3          1.5780    2.2790    1.0970 C.3       1 AMU1        0.0000
     20 H3          1.9260    1.8740    2.0700 H         1 AMU1        0.0000
     21 O3          2.1240    3.5710    0.7960 O.3       1 AMU1        0.0000
     22 CT3         2.8420    4.3630    1.7610 C.3       1 AMU1        0.0000
     23 HT3         3.6950    4.8210    1.2180 H         1 AMU1        0.0000
     24 CE3         1.9690    5.5830    2.2270 C.2       1 AMU1        0.0000
     25 O31         2.6590    6.4950    2.7590 O.co2     1 AMU1        0.0000
     26 O32         0.7360    5.3700    2.3060 O.co2     1 AMU1        0.0000
     27 CM3         3.4280    3.6330    3.0010 C.3       1 AMU1        0.0000
     28 HM31        4.0920    2.8010    2.7020 H         1 AMU1        0.0000
     29 HM32        2.6060    3.2460    3.6390 H         1 AMU1        0.0000
     30 HM33        4.0100    4.3610    3.6090 H         1 AMU1        0.0000
     31 C4          0.0720    2.3390    1.1070 C.3       1 AMU1        0.0000
     32 H4         -0.2670    2.8630    0.1820 H         1 AMU1        0.0000
     33 O4         -0.4220    3.0490    2.2340 O.3       1 AMU1        0.0000
     34 HO4        -0.0010    3.9530    2.2640 H         1 AMU1        0.0000
     35 C6         -2.0130    0.9030    1.0320 C.3       1 AMU1        0.0000
     36 H61        -2.3480    1.4270    0.1090 H         1 AMU1        0.0000
     37 H62        -2.4570    1.4370    1.9040 H         1 AMU1        0.0000
     38 O6         -2.5100   -0.4370    1.0180 O.3       1 AMU1        0.0000
     39 HO6        -2.1190   -0.8920    0.2650 H         1 AMU1        0.0000
@<TRIPOS>BOND
     1   13   12 2 
     2   15   14 1 
     3   16   14 1 
     4   12   14 1 
     5   12   10 am
     6    9    8 1 
     7    2    1 1 
     8   14   17 1 
     9    8   10 1 
    10    8    1 1 
    11    8   19 1 
    12   10   11 1 
    13    7    1 1 
    14    7    5 1 
    15    1    3 1 
    16   36   35 1 
    17   32   31 1 
    18   39   38 1 
    19   21   19 1 
    20   21   22 1 
    21   17   18 1 
    22   38   35 1 
    23   35    5 1 
    24   35   37 1 
    25   19   31 1 
    26   19   20 1 
    27   31    5 1 
    28   31   33 1 
    29    5    6 1 
    30    4    3 1 
    31   23   22 1 
    32   22   24 1 
    33   22   27 1 
    34   24   26 ar
    35   24   25 ar
    36   33   34 1 
    37   28   27 1 
    38   27   30 1 
    39   27   29 1 
