@<TRIPOS>MOLECULE
C:\Users\Praveer\PycharmProjects\pdb_to_mol2_converter\data\pdb\amu2ac.pdb
   38    38     0     0     0
SMALL
GASTEIGER

@<TRIPOS>ATOM
      1 C1          1.4440    0.0510    0.0380 C.3       1 AMU1        0.0000
      2 H1          1.7680   -0.5250   -0.8610 H         1 AMU1        0.0000
      3 O1          1.9180   -0.6090    1.1790 O.3       1 AMU1        0.0000
      4 HO1         1.5870   -1.5110    1.1450 H         1 AMU1        0.0000
      5 C5         -0.5020    0.9240    1.1220 C.3       1 AMU1        0.0000
      6 H5         -0.1960    0.4420    2.0830 H         1 AMU1        0.0000
      7 O5          0.0210    0.1680    0.0100 O.3       1 AMU1        0.0000
      8 C2          2.0690    1.4220   -0.0350 C.3       1 AMU1        0.0000
      9 H2          1.7040    1.8810   -0.9920 H         1 AMU1        0.0000
     10 N2          3.5300    1.3850   -0.0460 N.am      1 AMU1        0.0000
     11 HN2         3.9560    1.0540    0.7870 H         1 AMU1        0.0000
     12 C           4.2980    1.9000   -1.0130 C.2       1 AMU1        0.0000
     13 O           3.8590    2.2510   -2.0990 O.2       1 AMU1        0.0000
     14 CT          5.7650    2.0200   -0.6910 C.3       1 AMU1        0.0000
     15 HT11        6.3070    1.1480   -1.1100 H         1 AMU1        0.0000
     16 HT12        5.9200    2.0690    0.4050 H         1 AMU1        0.0000
     17 HT13        6.1550    2.9570   -1.1420 H         1 AMU1        0.0000
     18 C3          1.5550    2.2970    1.0780 C.3       1 AMU1        0.0000
     19 H3          1.9130    1.8880    2.0470 H         1 AMU1        0.0000
     20 O3          2.0850    3.5940    0.7820 O.3       1 AMU1        0.0000
     21 CT3         2.8150    4.3800    1.7420 C.3       1 AMU1        0.0000
     22 HT3         3.6760    4.8220    1.1950 H         1 AMU1        0.0000
     23 CE3         1.9440    5.6050    2.1990 C.2       1 AMU1        0.0000
     24 O31         2.6310    6.5660    2.6300 O.co2     1 AMU1        0.0000
     25 O32         0.7270    5.3480    2.3900 O.co2     1 AMU1        0.0000
     26 CM3         3.3840    3.6410    2.9850 C.3       1 AMU1        0.0000
     27 HM31        4.0100    2.7790    2.6840 H         1 AMU1        0.0000
     28 HM32        2.5560    3.2920    3.6370 H         1 AMU1        0.0000
     29 HM33        4.0040    4.3520    3.5720 H         1 AMU1        0.0000
     30 C4          0.0490    2.3400    1.1080 C.3       1 AMU1        0.0000
     31 H4         -0.3130    2.8650    0.1930 H         1 AMU1        0.0000
     32 O4         -0.4410    3.0350    2.2460 O.3       1 AMU1        0.0000
     33 HO4        -0.0230    3.9400    2.2930 H         1 AMU1        0.0000
     34 C6         -2.0160    0.8760    1.0620 C.3       1 AMU1        0.0000
     35 H61        -2.3740    1.4000    0.1470 H         1 AMU1        0.0000
     36 H62        -2.4460    1.4020    1.9460 H         1 AMU1        0.0000
     37 O6         -2.4950   -0.4710    1.0570 O.3       1 AMU1        0.0000
     38 HO6        -2.0970   -0.9270    0.3090 H         1 AMU1        0.0000
@<TRIPOS>BOND
     1   13   12 2 
     2   17   14 1 
     3   15   14 1 
     4   12   14 1 
     5   12   10 am
     6    9    8 1 
     7    2    1 1 
     8   14   16 1 
     9   10    8 1 
    10   10   11 1 
    11    8    1 1 
    12    8   18 1 
    13    7    1 1 
    14    7    5 1 
    15    1    3 1 
    16   35   34 1 
    17   31   30 1 
    18   38   37 1 
    19   20   18 1 
    20   20   21 1 
    21   37   34 1 
    22   34    5 1 
    23   34   36 1 
    24   18   30 1 
    25   18   19 1 
    26   30    5 1 
    27   30   32 1 
    28    5    6 1 
    29    4    3 1 
    30   22   21 1 
    31   21   23 1 
    32   21   26 1 
    33   23   25 ar
    34   23   24 ar
    35   32   33 1 
    36   27   26 1 
    37   26   29 1 
    38   26   28 1 
