@<TRIPOS>MOLECULE
C:\Users\Praveer\PycharmProjects\pdb_to_mol2_converter\data\pdb\amur.pdb
   33    33     0     0     0
SMALL
GASTEIGER

@<TRIPOS>ATOM
      1 C1          1.4030   -0.0780    0.0530 C.3       1 AMU1        0.0000
      2 H1          1.7040   -0.6930   -0.8270 H         1 AMU1        0.0000
      3 O1          1.8440   -0.7220    1.2150 O.3       1 AMU1        0.0000
      4 HO1         1.4950   -1.6170    1.2030 H         1 AMU1        0.0000
      5 C5         -0.4890    0.8960    1.1290 C.3       1 AMU1        0.0000
      6 H5         -0.2170    0.3920    2.0890 H         1 AMU1        0.0000
      7 O5         -0.0140    0.1090    0.0180 O.3       1 AMU1        0.0000
      8 C2          2.0830    1.2710   -0.0890 C.3       1 AMU1        0.0000
      9 H2          1.6990    1.7230   -1.0370 H         1 AMU1        0.0000
     10 N2          3.5280    1.1830   -0.2820 N.3       1 AMU1        0.0000
     11 HN21        3.9660    2.0870   -0.3260 H         1 AMU1        0.0000
     12 HN22        3.9910    0.4920    0.2680 H         1 AMU1        0.0000
     13 C3          1.6590    2.1990    1.0280 C.3       1 AMU1        0.0000
     14 H3          2.0660    1.7920    1.9780 H         1 AMU1        0.0000
     15 O3          2.2310    3.4710    0.6710 O.3       1 AMU1        0.0000
     16 CT3         2.8730    4.3440    1.6260 C.3       1 AMU1        0.0000
     17 HT3         3.7530    4.7870    1.1110 H         1 AMU1        0.0000
     18 CE3         1.9680    5.5800    1.9820 C.2       1 AMU1        0.0000
     19 O31         2.6190    6.5450    2.4510 O.co2     1 AMU1        0.0000
     20 O32         0.7300    5.3440    2.0500 O.co2     1 AMU1        0.0000
     21 CM3         3.3840    3.6850    2.9340 C.3       1 AMU1        0.0000
     22 HM31        4.0620    2.8370    2.7150 H         1 AMU1        0.0000
     23 HM32        2.5230    3.3300    3.5400 H         1 AMU1        0.0000
     24 HM33        3.9320    4.4450    3.5330 H         1 AMU1        0.0000
     25 C4          0.1470    2.2820    1.1230 C.3       1 AMU1        0.0000
     26 H4         -0.2250    2.8400    0.2310 H         1 AMU1        0.0000
     27 O4         -0.2740    2.9810    2.2840 O.3       1 AMU1        0.0000
     28 HO4         0.0730    3.9150    2.2330 H         1 AMU1        0.0000
     29 C6         -2.0070    0.9310    1.0640 C.3       1 AMU1        0.0000
     30 H61        -2.3340    1.4680    0.1450 H         1 AMU1        0.0000
     31 H62        -2.4060    1.4910    1.9410 H         1 AMU1        0.0000
     32 O6         -2.5710   -0.3820    1.0750 O.3       1 AMU1        0.0000
     33 HO6        -2.1810   -0.8940    0.3570 H         1 AMU1        0.0000
@<TRIPOS>BOND
     1    9    8 1 
     2    2    1 1 
     3   11   10 1 
     4   10    8 1 
     5   10   12 1 
     6    8    1 1 
     7    8   13 1 
     8    7    1 1 
     9    7    5 1 
    10    1    3 1 
    11   30   29 1 
    12   26   25 1 
    13   33   32 1 
    14   15   13 1 
    15   15   16 1 
    16   13   25 1 
    17   13   14 1 
    18   29   32 1 
    19   29    5 1 
    20   29   31 1 
    21   17   16 1 
    22   25    5 1 
    23   25   27 1 
    24    5    6 1 
    25    4    3 1 
    26   16   18 1 
    27   16   21 1 
    28   18   20 ar
    29   18   19 ar
    30   28   27 1 
    31   22   21 1 
    32   21   24 1 
    33   21   23 1 
