@<TRIPOS>MOLECULE
C:\Users\Praveer\PycharmProjects\pdb_to_mol2_converter\data\pdb\ane5ac.pdb
   39    39     0     0     0
SMALL
GASTEIGER

@<TRIPOS>ATOM
      1 C1          2.3020    1.3080   -0.0450 C.2       1 ANE1        0.0000
      2 O11         3.1560    1.4710    0.8760 O.co2     1 ANE1        0.0000
      3 O12         1.9820    2.1170   -0.9520 O.co2     1 ANE1        0.0000
      4 C2          1.5190   -0.0550   -0.0240 C.3       1 ANE1        0.0000
      5 O2          1.8590   -0.7840    1.1230 O.3       1 ANE1        0.0000
      6 HO2         2.5740   -0.2190    1.4560 H         1 ANE1        0.0000
      7 C6          1.5950   -0.5880   -2.4260 C.3       1 ANE1        0.0000
      8 H6          2.0440    0.3870   -2.7090 H         1 ANE1        0.0000
      9 O6          1.9940   -0.9170   -1.0670 O.3       1 ANE1        0.0000
     10 C3          0.0070    0.0590   -0.0960 C.3       1 ANE1        0.0000
     11 H31        -0.3320    0.7890    0.6710 H         1 ANE1        0.0000
     12 H32        -0.4210   -0.9360    0.1790 H         1 ANE1        0.0000
     13 C4         -0.4930    0.4330   -1.4440 C.3       1 ANE1        0.0000
     14 H4         -0.1930    1.4770   -1.7040 H         1 ANE1        0.0000
     15 O4         -1.9110    0.3820   -1.4070 O.3       1 ANE1        0.0000
     16 HO4        -2.2130    1.1170   -0.8670 H         1 ANE1        0.0000
     17 C5          0.0500   -0.4950   -2.5080 C.3       1 ANE1        0.0000
     18 H5         -0.3120   -1.5200   -2.2440 H         1 ANE1        0.0000
     19 N          -0.5860   -0.1820   -3.7800 N.am      1 ANE1        0.0000
     20 HN         -1.4620   -0.6330   -3.9000 H         1 ANE1        0.0000
     21 C          -0.2500    0.8010   -4.6250 C.2       1 ANE1        0.0000
     22 O           0.7800    1.4450   -4.5460 O.2       1 ANE1        0.0000
     23 CT         -1.2200    1.0530   -5.7490 C.3       1 ANE1        0.0000
     24 HT1        -2.1350    1.5400   -5.3510 H         1 ANE1        0.0000
     25 HT2        -1.4910    0.1010   -6.2470 H         1 ANE1        0.0000
     26 HT3        -0.7440    1.7310   -6.4900 H         1 ANE1        0.0000
     27 C7          2.2870   -1.7040   -3.2450 C.3       1 ANE1        0.0000
     28 H7          1.7670   -2.6610   -3.0050 H         1 ANE1        0.0000
     29 O7          3.6360   -1.8660   -2.7840 O.3       1 ANE1        0.0000
     30 HO7         3.5730   -1.5310   -1.8720 H         1 ANE1        0.0000
     31 C8          2.3290   -1.5380   -4.7660 C.3       1 ANE1        0.0000
     32 H8          2.4810   -0.4520   -4.9840 H         1 ANE1        0.0000
     33 O8          1.0840   -1.9730   -5.3360 O.3       1 ANE1        0.0000
     34 HO8         0.5430   -1.1770   -5.3420 H         1 ANE1        0.0000
     35 C9          3.4690   -2.2830   -5.4560 C.3       1 ANE1        0.0000
     36 H91         3.3740   -3.3760   -5.2660 H         1 ANE1        0.0000
     37 H92         4.4570   -1.9460   -5.0730 H         1 ANE1        0.0000
     38 O9          3.4430   -2.0400   -6.8680 O.3       1 ANE1        0.0000
     39 HO9         2.5250   -2.2070   -7.1080 H         1 ANE1        0.0000
@<TRIPOS>BOND
     1   39   38 1 
     2   38   35 1 
     3   26   23 1 
     4   25   23 1 
     5   23   24 1 
     6   23   21 1 
     7   35   36 1 
     8   35   37 1 
     9   35   31 1 
    10   34   33 1 
    11   33   31 1 
    12   32   31 1 
    13   31   27 1 
    14   21   22 2 
    15   21   19 am
    16   20   19 1 
    17   19   17 1 
    18   27   28 1 
    19   27   29 1 
    20   27    7 1 
    21   29   30 1 
    22    8    7 1 
    23   17    7 1 
    24   17   18 1 
    25   17   13 1 
    26    7    9 1 
    27   14   13 1 
    28   13   15 1 
    29   13   10 1 
    30   15   16 1 
    31    9    4 1 
    32    3    1 ar
    33   10    4 1 
    34   10   12 1 
    35   10   11 1 
    36    1    4 1 
    37    1    2 ar
    38    4    5 1 
    39    5    6 1 
