@<TRIPOS>MOLECULE
C:\Users\Praveer\PycharmProjects\pdb_to_mol2_converter\data\pdb\ane5gc.pdb
   40    40     0     0     0
SMALL
GASTEIGER

@<TRIPOS>ATOM
      1 C1          2.3960    1.2540   -0.0110 C.2       1 ANE1        0.0000
      2 O11         3.1860    1.4120    0.9640 O.co2     1 ANE1        0.0000
      3 O12         2.0600    2.1060   -0.8760 O.co2     1 ANE1        0.0000
      4 C2          1.5550   -0.0760    0.0100 C.3       1 ANE1        0.0000
      5 O2          1.8770   -0.8150    1.1560 O.3       1 ANE1        0.0000
      6 HO2         2.5600   -0.2260    1.5170 H         1 ANE1        0.0000
      7 C6          1.5670   -0.6020   -2.3850 C.3       1 ANE1        0.0000
      8 H6          2.0180    0.3720   -2.6790 H         1 ANE1        0.0000
      9 O6          1.9980   -0.9450   -1.0430 O.3       1 ANE1        0.0000
     10 C3          0.0450    0.1080   -0.0420 C.3       1 ANE1        0.0000
     11 H31        -0.2480    0.8680    0.7160 H         1 ANE1        0.0000
     12 H32        -0.4240   -0.8600    0.2590 H         1 ANE1        0.0000
     13 C4         -0.4680    0.4770   -1.3870 C.3       1 ANE1        0.0000
     14 H4         -0.1310    1.5050   -1.6640 H         1 ANE1        0.0000
     15 O4         -1.8860    0.4720   -1.3320 O.3       1 ANE1        0.0000
     16 HO4        -2.1610    1.2990   -0.9270 H         1 ANE1        0.0000
     17 C5          0.0310   -0.4920   -2.4330 C.3       1 ANE1        0.0000
     18 H5         -0.3430   -1.5040   -2.1360 H         1 ANE1        0.0000
     19 N          -0.5660   -0.2340   -3.7280 N.am      1 ANE1        0.0000
     20 HN         -1.2260   -0.9130   -4.0320 H         1 ANE1        0.0000
     21 C          -0.3510    0.8380   -4.5070 C.2       1 ANE1        0.0000
     22 O           0.4480    1.7260   -4.2190 O.2       1 ANE1        0.0000
     23 C10        -1.1190    0.8800   -5.8460 C.3       1 ANE1        0.0000
     24 H10        -0.6300    1.6560   -6.4760 H         1 ANE1        0.0000
     25 H11        -2.1600    1.2010   -5.6270 H         1 ANE1        0.0000
     26 O13        -1.1220   -0.3820   -6.5410 O.3       1 ANE1        0.0000
     27 HO13       -1.6260   -0.3120   -7.3610 H         1 ANE1        0.0000
     28 C7          2.1970   -1.7160   -3.2450 C.3       1 ANE1        0.0000
     29 H7          1.6850   -2.6680   -2.9690 H         1 ANE1        0.0000
     30 O7          3.5690   -1.8920   -2.8570 O.3       1 ANE1        0.0000
     31 HO7         3.5490   -1.6000   -1.9290 H         1 ANE1        0.0000
     32 C8          2.1230   -1.5390   -4.7710 C.3       1 ANE1        0.0000
     33 H8          2.0580   -0.4440   -4.9770 H         1 ANE1        0.0000
     34 O8          0.9500   -2.1990   -5.2920 O.3       1 ANE1        0.0000
     35 HO8         0.4070   -1.5090   -5.7060 H         1 ANE1        0.0000
     36 C9          3.3510   -2.0430   -5.5220 C.3       1 ANE1        0.0000
     37 H91         3.4950   -3.1300   -5.3310 H         1 ANE1        0.0000
     38 H92         4.2610   -1.5080   -5.1750 H         1 ANE1        0.0000
     39 O9          3.2180   -1.8030   -6.9290 O.3       1 ANE1        0.0000
     40 HO9         2.4060   -2.2670   -7.1580 H         1 ANE1        0.0000
@<TRIPOS>BOND
     1   27   26 1 
     2   40   39 1 
     3   39   36 1 
     4   26   23 1 
     5   24   23 1 
     6   23   25 1 
     7   23   21 1 
     8   35   34 1 
     9   36   37 1 
    10   36   38 1 
    11   36   32 1 
    12   34   32 1 
    13   33   32 1 
    14   32   28 1 
    15   21   22 2 
    16   21   19 am
    17   20   19 1 
    18   19   17 1 
    19   28   29 1 
    20   28   30 1 
    21   28    7 1 
    22   30   31 1 
    23    8    7 1 
    24   17    7 1 
    25   17   18 1 
    26   17   13 1 
    27    7    9 1 
    28   14   13 1 
    29   13   15 1 
    30   13   10 1 
    31   15   16 1 
    32    9    4 1 
    33    3    1 ar
    34   10    4 1 
    35   10   12 1 
    36   10   11 1 
    37    1    4 1 
    38    1    2 ar
    39    4    5 1 
    40    5    6 1 
