@<TRIPOS>MOLECULE
C:\Users\Praveer\PycharmProjects\pdb_to_mol2_converter\data\pdb\aneu.pdb
   34    34     0     0     0
SMALL
GASTEIGER

@<TRIPOS>ATOM
      1 C1          2.3200    1.3060   -0.1090 C.2       1 ANE1        0.0000
      2 O11         3.1180    1.5140    0.8510 O.co2     1 ANE1        0.0000
      3 O12         2.0660    2.0620   -1.0830 O.co2     1 ANE1        0.0000
      4 C2          1.5300   -0.0520   -0.0550 C.3       1 ANE1        0.0000
      5 O2          1.8510   -0.7610    1.1100 O.3       1 ANE1        0.0000
      6 HO2         2.5470   -0.1840    1.4600 H         1 ANE1        0.0000
      7 C6          1.6140   -0.6400   -2.4340 C.3       1 ANE1        0.0000
      8 H6          2.0400    0.3390   -2.7480 H         1 ANE1        0.0000
      9 O6          2.0180   -0.9380   -1.0730 O.3       1 ANE1        0.0000
     10 C3          0.0180    0.0770   -0.1370 C.3       1 ANE1        0.0000
     11 H31        -0.3160    0.8430    0.6000 H         1 ANE1        0.0000
     12 H32        -0.4190   -0.9020    0.1750 H         1 ANE1        0.0000
     13 C4         -0.4750    0.4080   -1.4980 C.3       1 ANE1        0.0000
     14 H4         -0.1660    1.4410   -1.7860 H         1 ANE1        0.0000
     15 O4         -1.8940    0.3790   -1.4630 O.3       1 ANE1        0.0000
     16 HO4        -2.1620   -0.3810   -0.9440 H         1 ANE1        0.0000
     17 C5          0.0790   -0.5580   -2.5290 C.3       1 ANE1        0.0000
     18 H5         -0.3030   -1.5740   -2.2650 H         1 ANE1        0.0000
     19 N5         -0.4420   -0.2360   -3.8450 N.3       1 ANE1        0.0000
     20 HN51       -1.3500   -0.6240   -3.9980 H         1 ANE1        0.0000
     21 HN52       -0.4480    0.7510   -4.0060 H         1 ANE1        0.0000
     22 C7          2.2920   -1.7400   -3.2800 C.3       1 ANE1        0.0000
     23 H7          1.7210   -2.6850   -3.1210 H         1 ANE1        0.0000
     24 O7          3.6130   -1.9950   -2.7820 O.3       1 ANE1        0.0000
     25 HO7         3.5420   -1.7100   -1.8570 H         1 ANE1        0.0000
     26 C8          2.3950   -1.4640   -4.7810 C.3       1 ANE1        0.0000
     27 H8          2.5940   -0.3730   -4.9210 H         1 ANE1        0.0000
     28 O8          1.1460   -1.8000   -5.4060 O.3       1 ANE1        0.0000
     29 HO8         0.5000   -1.2330   -4.9400 H         1 ANE1        0.0000
     30 C9          3.5170   -2.2260   -5.4750 C.3       1 ANE1        0.0000
     31 H91         3.3930   -3.3180   -5.2980 H         1 ANE1        0.0000
     32 H92         4.5110   -1.9170   -5.0830 H         1 ANE1        0.0000
     33 O9          3.4890   -1.9580   -6.8810 O.3       1 ANE1        0.0000
     34 HO9         2.5380   -1.9600   -7.0700 H         1 ANE1        0.0000
@<TRIPOS>BOND
     1   34   33 1 
     2   33   30 1 
     3   30   31 1 
     4   30   32 1 
     5   30   26 1 
     6   28   29 1 
     7   28   26 1 
     8   27   26 1 
     9   26   22 1 
    10   21   19 1 
    11   20   19 1 
    12   19   17 1 
    13   22   23 1 
    14   22   24 1 
    15   22    7 1 
    16   24   25 1 
    17    8    7 1 
    18   17    7 1 
    19   17   18 1 
    20   17   13 1 
    21    7    9 1 
    22   14   13 1 
    23   13   15 1 
    24   13   10 1 
    25   15   16 1 
    26    3    1 ar
    27    9    4 1 
    28   10    4 1 
    29   10   12 1 
    30   10   11 1 
    31    1    4 1 
    32    1    2 ar
    33    4    5 1 
    34    5    6 1 
