@<TRIPOS>MOLECULE
C:\Users\Praveer\PycharmProjects\pdb_to_mol2_converter\data\pdb\antr.pdb
   24    26     0     0     0
SMALL
GASTEIGER

@<TRIPOS>ATOM
      1 C1          2.0910    1.2460    0.0000 C.ar      1 ANT1        0.0000
      2 H1          3.1720    1.2630    0.0000 H         1 ANT1        0.0000
      3 C2          1.3870    2.4580    0.0000 C.ar      1 ANT1        0.0000
      4 H2          1.9260    3.3940    0.0000 H         1 ANT1        0.0000
      5 C3         -0.0120    2.4580   -0.0000 C.ar      1 ANT1        0.0000
      6 H3         -0.5510    3.3940   -0.0000 H         1 ANT1        0.0000
      7 C4         -0.7160    1.2460   -0.0000 C.ar      1 ANT1        0.0000
      8 H4         -1.7970    1.2630   -0.0000 H         1 ANT1        0.0000
      9 C5         -0.0240    0.0260   -0.0000 C.ar      1 ANT1        0.0000
     10 C6         -0.7200   -1.1910   -0.0000 C.ar      1 ANT1        0.0000
     11 H6         -1.8010   -1.1910   -0.0000 H         1 ANT1        0.0000
     12 C7         -0.0240   -2.4080   -0.0000 C.ar      1 ANT1        0.0000
     13 C8         -0.7160   -3.6280    0.0000 C.ar      1 ANT1        0.0000
     14 H8         -1.7970   -3.6450    0.0000 H         1 ANT1        0.0000
     15 C9         -0.0120   -4.8390    0.0000 C.ar      1 ANT1        0.0000
     16 H9         -0.5510   -5.7760    0.0000 H         1 ANT1        0.0000
     17 C10         1.3870   -4.8390   -0.0000 C.ar      1 ANT1        0.0000
     18 H10         1.9260   -5.7760   -0.0000 H         1 ANT1        0.0000
     19 C11         2.0910   -3.6280   -0.0000 C.ar      1 ANT1        0.0000
     20 H11         3.1720   -3.6450   -0.0000 H         1 ANT1        0.0000
     21 C12         1.3990   -2.4080   -0.0000 C.ar      1 ANT1        0.0000
     22 C13         2.0950   -1.1910    0.0000 C.ar      1 ANT1        0.0000
     23 H13         3.1760   -1.1910    0.0000 H         1 ANT1        0.0000
     24 C14         1.3990    0.0260    0.0000 C.ar      1 ANT1        0.0000
@<TRIPOS>BOND
     1    1    2 1 
     2    1    3 ar
     3    1   24 ar
     4    3    4 1 
     5    3    5 ar
     6    5    6 1 
     7    5    7 ar
     8    7    8 1 
     9    7    9 ar
    10    9   10 ar
    11    9   24 ar
    12   10   11 1 
    13   10   12 ar
    14   12   13 ar
    15   12   21 ar
    16   13   14 1 
    17   13   15 ar
    18   15   16 1 
    19   15   17 ar
    20   17   18 1 
    21   17   19 ar
    22   19   20 1 
    23   19   21 ar
    24   21   22 ar
    25   22   23 1 
    26   22   24 ar
