@<TRIPOS>MOLECULE
C:\Users\Praveer\PycharmProjects\pdb_to_mol2_converter\data\pdb\aobt.pdb
   25    25     0     0     0
SMALL
GASTEIGER

@<TRIPOS>ATOM
      1 S1          1.6250    0.1470    0.0790 S.O2      1 AOB1        0.0000
      2 N2          1.6470    1.7700    0.0050 N.3       1 AOB1        0.0000
      3 H2          2.5280    2.0650    0.4210 H         1 AOB1        0.0000
      4 O11         2.1860   -0.2080    1.3490 O.2       1 AOB1        0.0000
      5 O12         2.1740   -0.3860   -1.1340 O.2       1 AOB1        0.0000
      6 C3          1.5180    2.4020   -1.3090 C.3       1 AOB1        0.0000
      7 H31         0.4410    2.4710   -1.5930 H         1 AOB1        0.0000
      8 H32         2.0260    1.8260   -2.1170 H         1 AOB1        0.0000
      9 N4          2.0990    3.7530   -1.2440 N.pl3     1 AOB1        0.0000
     10 H4          1.5260    4.3680   -0.6700 H         1 AOB1        0.0000
     11 C5          3.4970    3.9540   -1.1650 C.ar      1 AOB1        0.0000
     12 C6          3.9420    5.2780   -1.0310 C.ar      1 AOB1        0.0000
     13 H6          3.2310    6.0910   -0.9840 H         1 AOB1        0.0000
     14 C7          5.3130    5.5670   -0.9750 C.ar      1 AOB1        0.0000
     15 H7          5.6470    6.5900   -0.8790 H         1 AOB1        0.0000
     16 C8          6.2500    4.5290   -1.0490 C.ar      1 AOB1        0.0000
     17 H8          7.3060    4.7500   -1.0070 H         1 AOB1        0.0000
     18 C9          5.8170    3.2040   -1.1810 C.ar      1 AOB1        0.0000
     19 H9          6.5390    2.4010   -1.2380 H         1 AOB1        0.0000
     20 C10         4.4470    2.9160   -1.2430 C.ar      1 AOB1        0.0000
     21 H10         4.1430    1.8860   -1.3540 H         1 AOB1        0.0000
     22 CS         -0.1050   -0.2450    0.1270 C.3       1 AOB1        0.0000
     23 HS1        -0.5800    0.1060   -0.8110 H         1 AOB1        0.0000
     24 HS2        -0.5610    0.2550    1.0040 H         1 AOB1        0.0000
     25 HS3        -0.2090   -1.3440    0.2170 H         1 AOB1        0.0000
@<TRIPOS>BOND
     1    8    6 1 
     2    7    6 1 
     3   21   20 1 
     4    6    9 1 
     5    6    2 1 
     6    9   11 1 
     7    9   10 1 
     8   20   18 ar
     9   20   11 ar
    10   19   18 1 
    11   18   16 ar
    12   11   12 ar
    13    5    1 2 
    14   16   17 1 
    15   16   14 ar
    16   12   13 1 
    17   12   14 ar
    18   14   15 1 
    19   23   22 1 
    20    2    1 1 
    21    2    3 1 
    22    1   22 1 
    23    1    4 2 
    24   22   25 1 
    25   22   24 1 
