@<TRIPOS>MOLECULE
C:\Users\Praveer\PycharmProjects\pdb_to_mol2_converter\data\pdb\aog.pdb
   48    48     0     0     0
SMALL
GASTEIGER

@<TRIPOS>ATOM
      1 2C1         1.4140    0.1320    0.1990 C.3       1 AOG1        0.0000
      2 2H1         1.7120   -0.4890   -0.6800 H         1 AOG1        0.0000
      3 2O1         2.0180   -0.5340    1.3020 O.3       1 AOG1        0.0000
      4 2C5        -0.7000    1.0050    1.0020 C.3       1 AOG1        0.0000
      5 2H5        -0.4630    0.8080    2.0690 H         1 AOG1        0.0000
      6 2O5        -0.0210    0.0470    0.1700 O.3       1 AOG1        0.0000
      7 2C2         1.8820    1.5420   -0.1580 C.3       1 AOG1        0.0000
      8 2H2         1.5630    1.6990   -1.2210 H         1 AOG1        0.0000
      9 2O2         3.3080    1.6730   -0.1390 O.3       1 AOG1        0.0000
     10 2HO2        3.6910    0.9790    0.4090 H         1 AOG1        0.0000
     11 2C3         1.1960    2.6340    0.6380 C.3       1 AOG1        0.0000
     12 2H3         1.5620    2.6180    1.6870 H         1 AOG1        0.0000
     13 2O3         1.5330    3.9220    0.1210 O.3       1 AOG1        0.0000
     14 2HO3        2.4720    3.9050   -0.1080 H         1 AOG1        0.0000
     15 2C4        -0.3070    2.4360    0.6400 C.3       1 AOG1        0.0000
     16 2H4        -0.6890    2.6370   -0.3910 H         1 AOG1        0.0000
     17 2O4        -0.9310    3.3550    1.5240 O.3       1 AOG1        0.0000
     18 2HO4       -0.5790    4.2310    1.3230 H         1 AOG1        0.0000
     19 2C6        -2.1910    0.7630    0.8510 C.3       1 AOG1        0.0000
     20 2H61       -2.5130    0.9800   -0.1910 H         1 AOG1        0.0000
     21 2H62       -2.7550    1.4360    1.5350 H         1 AOG1        0.0000
     22 2O6        -2.5280   -0.5920    1.1660 O.3       1 AOG1        0.0000
     23 2HO6       -1.9590   -1.1700    0.6490 H         1 AOG1        0.0000
     24 C1          2.2840    0.2400    2.4690 C.3       1 AOG1        0.0000
     25 H11         1.3960    0.8320    2.7640 H         1 AOG1        0.0000
     26 H12         3.1320    0.9400    2.2980 H         1 AOG1        0.0000
     27 C2          2.6310   -0.6250    3.6920 C.3       1 AOG1        0.0000
     28 H21         3.6030   -1.1360    3.5160 H         1 AOG1        0.0000
     29 H22         1.8530   -1.4080    3.8270 H         1 AOG1        0.0000
     30 C3          2.6970    0.2600    4.9470 C.3       1 AOG1        0.0000
     31 H31         1.6970    0.7260    5.1080 H         1 AOG1        0.0000
     32 H32         3.4210    1.0880    4.7650 H         1 AOG1        0.0000
     33 C4          3.1060   -0.4460    6.2450 C.3       1 AOG1        0.0000
     34 H41         4.1120   -0.9010    6.1200 H         1 AOG1        0.0000
     35 H42         2.3870   -1.2610    6.4800 H         1 AOG1        0.0000
     36 C5          3.1340    0.5750    7.3920 C.3       1 AOG1        0.0000
     37 H51         2.0940    0.9220    7.5880 H         1 AOG1        0.0000
     38 H52         3.7190    1.4610    7.0520 H         1 AOG1        0.0000
     39 C6          3.7540    0.0810    8.7050 C.3       1 AOG1        0.0000
     40 H61         4.7950   -0.2650    8.5160 H         1 AOG1        0.0000
     41 H62         3.1700   -0.7810    9.0960 H         1 AOG1        0.0000
     42 C7          3.7750    1.2120    9.7460 C.3       1 AOG1        0.0000
     43 H71         2.7290    1.5630    9.9030 H         1 AOG1        0.0000
     44 H72         4.3480    2.0680    9.3200 H         1 AOG1        0.0000
     45 C8          4.3810    0.8340   11.0990 C.3       1 AOG1        0.0000
     46 H81         5.4360    0.5080   10.9800 H         1 AOG1        0.0000
     47 H82         3.8060    0.0110   11.5720 H         1 AOG1        0.0000
     48 H83         4.3630    1.7100   11.7840 H         1 AOG1        0.0000
@<TRIPOS>BOND
     1    8    7 1 
     2    2    1 1 
     3   16   15 1 
     4   20   19 1 
     5    7    9 1 
     6    7    1 1 
     7    7   11 1 
     8    9   10 1 
     9   14   13 1 
    10   13   11 1 
    11    6    1 1 
    12    6    4 1 
    13    1    3 1 
    14   11   15 1 
    15   11   12 1 
    16   15    4 1 
    17   15   17 1 
    18   23   22 1 
    19   19    4 1 
    20   19   22 1 
    21   19   21 1 
    22    4    5 1 
    23    3   24 1 
    24   18   17 1 
    25   26   24 1 
    26   24   25 1 
    27   24   27 1 
    28   28   27 1 
    29   27   29 1 
    30   27   30 1 
    31   32   30 1 
    32   30   31 1 
    33   30   33 1 
    34   34   33 1 
    35   33   35 1 
    36   33   36 1 
    37   38   36 1 
    38   36   37 1 
    39   36   39 1 
    40   40   39 1 
    41   39   41 1 
    42   39   42 1 
    43   44   42 1 
    44   42   43 1 
    45   42   45 1 
    46   46   45 1 
    47   45   47 1 
    48   45   48 1 
