@<TRIPOS>MOLECULE
C:\Users\Praveer\PycharmProjects\pdb_to_mol2_converter\data\pdb\aoli.pdb
   22    22     0     0     0
SMALL
GASTEIGER

@<TRIPOS>ATOM
      1 C1          1.5670   -2.0410    1.3070 C.3       1 AOL1        0.0000
      2 H1          1.9400   -2.4350    2.2840 H         1 AOL1        0.0000
      3 O1          2.1020   -2.8450    0.3050 O.3       1 AOL1        0.0000
      4 HO1         3.0540   -2.8370    0.4250 H         1 AOL1        0.0000
      5 C5          1.5540   -0.0320    0.0070 C.3       1 AOL1        0.0000
      6 H5          1.9320   -0.5750   -0.8920 H         1 AOL1        0.0000
      7 O5          2.0110   -0.6900    1.2000 O.3       1 AOL1        0.0000
      8 C2          0.0750   -2.0180    1.3540 C.3       1 AOL1        0.0000
      9 H21        -0.2540   -1.4360    2.2470 H         1 AOL1        0.0000
     10 H22        -0.3020   -3.0590    1.4760 H         1 AOL1        0.0000
     11 C3         -0.4960   -1.4060    0.1180 C.3       1 AOL1        0.0000
     12 H3         -0.1880   -2.0030   -0.7770 H         1 AOL1        0.0000
     13 O3         -1.9130   -1.4300    0.2090 O.3       1 AOL1        0.0000
     14 HO3        -2.2390   -2.2680   -0.1330 H         1 AOL1        0.0000
     15 C4          0.0330    0.0000   -0.0410 C.3       1 AOL1        0.0000
     16 H4         -0.3220    0.6160    0.8190 H         1 AOL1        0.0000
     17 O4         -0.4340    0.6010   -1.2450 O.3       1 AOL1        0.0000
     18 HO4        -1.3970    0.5730   -1.2180 H         1 AOL1        0.0000
     19 C6          2.1930    1.3690    0.0190 C.3       1 AOL1        0.0000
     20 H61         1.9010    1.9320   -0.8920 H         1 AOL1        0.0000
     21 H62         3.2990    1.2850    0.0490 H         1 AOL1        0.0000
     22 H63         1.8560    1.9350    0.9120 H         1 AOL1        0.0000
@<TRIPOS>BOND
     1   17   18 1 
     2   17   15 1 
     3    6    5 1 
     4   20   19 1 
     5   12   11 1 
     6   14   13 1 
     7   15    5 1 
     8   15   11 1 
     9   15   16 1 
    10    5   19 1 
    11    5    7 1 
    12   19   21 1 
    13   19   22 1 
    14   11   13 1 
    15   11    8 1 
    16    3    4 1 
    17    3    1 1 
    18    7    1 1 
    19    1    8 1 
    20    1    2 1 
    21    8   10 1 
    22    8    9 1 
