@<TRIPOS>MOLECULE
C:\Users\Praveer\PycharmProjects\pdb_to_mol2_converter\data\pdb\aom.pdb
   69    70     0     0     0
SMALL
GASTEIGER

@<TRIPOS>ATOM
      1 1C1         1.7480    2.1170    1.3790 C.3       1 AOM1        0.0000
      2 1H1         0.6530    2.1880    1.5690 H         1 AOM1        0.0000
      3 1C5         3.8110    1.4380    2.3760 C.3       1 AOM1        0.0000
      4 1H5         4.0610    0.8750    1.4470 H         1 AOM1        0.0000
      5 1O5         2.3840    1.5420    2.5240 O.3       1 AOM1        0.0000
      6 1C2         2.2780    3.5260    1.1760 C.3       1 AOM1        0.0000
      7 1H2         1.9910    4.1180    2.0790 H         1 AOM1        0.0000
      8 1O2         1.6780    4.1670    0.0450 O.3       1 AOM1        0.0000
      9 1HO2        1.7740    3.6000   -0.7280 H         1 AOM1        0.0000
     10 1C3         3.7920    3.5440    1.0800 C.3       1 AOM1        0.0000
     11 1H3         4.0930    2.9950    0.1540 H         1 AOM1        0.0000
     12 1O3         4.2840    4.8790    0.9700 O.3       1 AOM1        0.0000
     13 1HO3        3.6570    5.3770    0.4320 H         1 AOM1        0.0000
     14 1C4         4.4010    2.8320    2.2690 C.3       1 AOM1        0.0000
     15 1H4         4.1530    3.3970    3.2000 H         1 AOM1        0.0000
     16 1O4         5.8160    2.7670    2.1520 O.3       1 AOM1        0.0000
     17 1HO4        6.1160    3.6450    1.8860 H         1 AOM1        0.0000
     18 1C6         4.3220    0.6320    3.5470 C.3       1 AOM1        0.0000
     19 1H61        4.0980    1.1580    4.5010 H         1 AOM1        0.0000
     20 1H62        5.4260    0.5060    3.4710 H         1 AOM1        0.0000
     21 1O6         3.7160   -0.6630    3.5690 O.3       1 AOM1        0.0000
     22 1HO6        2.7610   -0.5460    3.6290 H         1 AOM1        0.0000
     23 2C1         0.1880   -1.8310   -1.5960 C.3       1 AOM1        0.0000
     24 2H1        -0.0540   -2.9070   -1.7720 H         1 AOM1        0.0000
     25 2O1        -0.3250   -1.1700   -2.7490 O.3       1 AOM1        0.0000
     26 2C5         2.1650   -0.5540   -1.1120 C.3       1 AOM1        0.0000
     27 2H5         1.9770    0.1640   -1.9410 H         1 AOM1        0.0000
     28 2O5         1.6150   -1.8270   -1.4880 O.3       1 AOM1        0.0000
     29 2C2        -0.4020   -1.5070   -0.2300 C.3       1 AOM1        0.0000
     30 2H2        -0.0280   -2.3220    0.4440 H         1 AOM1        0.0000
     31 2O2        -1.8280   -1.5970   -0.2080 O.3       1 AOM1        0.0000
     32 2HO2       -2.1780   -1.4660   -1.0990 H         1 AOM1        0.0000
     33 2C3         0.0960   -0.2050    0.3830 C.3       1 AOM1        0.0000
     34 2H3        -0.4340    0.6530   -0.0820 H         1 AOM1        0.0000
     35 2O3        -0.2630   -0.1620    1.7570 O.3       1 AOM1        0.0000
     36 2HO3       -1.1740   -0.4760    1.8310 H         1 AOM1        0.0000
     37 2C4         1.5940   -0.0030    0.1980 C.3       1 AOM1        0.0000
     38 2H4         2.1140   -0.5450    1.0260 H         1 AOM1        0.0000
     39 2O4         1.9900    1.3800    0.2030 O.3       1 AOM1        0.0000
     40 2C6         3.6710   -0.7260   -1.0350 C.3       1 AOM1        0.0000
     41 2H61        3.9340   -1.4690   -0.2470 H         1 AOM1        0.0000
     42 2H62        4.1470    0.2420   -0.7650 H         1 AOM1        0.0000
     43 2O6         4.2160   -1.1500   -2.2840 O.3       1 AOM1        0.0000
     44 2HO6        3.7920   -1.9800   -2.5380 H         1 AOM1        0.0000
     45 C1         -0.7250    0.1880   -2.5840 C.3       1 AOM1        0.0000
     46 H11         0.0690    0.7650   -2.0730 H         1 AOM1        0.0000
     47 H12        -1.6540    0.2520   -1.9770 H         1 AOM1        0.0000
     48 C2         -0.9710    0.9400   -3.8990 C.3       1 AOM1        0.0000
     49 H21        -1.9110    0.5740   -4.3650 H         1 AOM1        0.0000
     50 H22        -0.1360    0.7510   -4.6100 H         1 AOM1        0.0000
     51 C3         -1.0610    2.4450   -3.6030 C.3       1 AOM1        0.0000
     52 H31        -0.0720    2.7930   -3.2250 H         1 AOM1        0.0000
     53 H32        -1.8050    2.6040   -2.7890 H         1 AOM1        0.0000
     54 C4         -1.4580    3.3290   -4.7860 C.3       1 AOM1        0.0000
     55 H41        -2.4650    3.0240   -5.1500 H         1 AOM1        0.0000
     56 H42        -0.7360    3.1980   -5.6220 H         1 AOM1        0.0000
     57 C5         -1.4970    4.8040   -4.3590 C.3       1 AOM1        0.0000
     58 H51        -0.4760    5.1320   -4.0610 H         1 AOM1        0.0000
     59 H52        -2.1510    4.8950   -3.4610 H         1 AOM1        0.0000
     60 C6         -2.0370    5.7410   -5.4430 C.3       1 AOM1        0.0000
     61 H61        -3.0300    5.3670   -5.7790 H         1 AOM1        0.0000
     62 H62        -1.3540    5.7280   -6.3220 H         1 AOM1        0.0000
     63 C7         -2.1960    7.1800   -4.9360 C.3       1 AOM1        0.0000
     64 H71        -1.1930    7.5830   -4.6690 H         1 AOM1        0.0000
     65 H72        -2.8050    7.1620   -4.0020 H         1 AOM1        0.0000
     66 C8         -2.8690    8.1090   -5.9480 C.3       1 AOM1        0.0000
     67 H81        -3.8830    7.7320   -6.2030 H         1 AOM1        0.0000
     68 H82        -2.2700    8.1670   -6.8820 H         1 AOM1        0.0000
     69 H83        -2.9710    9.1330   -5.5290 H         1 AOM1        0.0000
@<TRIPOS>BOND
     1   68   66 1 
     2   62   60 1 
     3   67   66 1 
     4   66   69 1 
     5   66   63 1 
     6   61   60 1 
     7   56   54 1 
     8   60   63 1 
     9   60   57 1 
    10   55   54 1 
    11   63   64 1 
    12   63   65 1 
    13   54   57 1 
    14   54   51 1 
    15   50   48 1 
    16   49   48 1 
    17   57   58 1 
    18   57   59 1 
    19   48   51 1 
    20   48   45 1 
    21   51   52 1 
    22   51   53 1 
    23   25   45 1 
    24   25   23 1 
    25   45   46 1 
    26   45   47 1 
    27   44   43 1 
    28   43   40 1 
    29   27   26 1 
    30   24   23 1 
    31   23   28 1 
    32   23   29 1 
    33   28   26 1 
    34   26   40 1 
    35   26   37 1 
    36   32   31 1 
    37   40   42 1 
    38   40   41 1 
    39    9    8 1 
    40   29   31 1 
    41   29   33 1 
    42   29   30 1 
    43   34   33 1 
    44    8    6 1 
    45   11   10 1 
    46   37   39 1 
    47   37   33 1 
    48   37   38 1 
    49   39    1 1 
    50   33   35 1 
    51   13   12 1 
    52   12   10 1 
    53   10    6 1 
    54   10   14 1 
    55    6    1 1 
    56    6    7 1 
    57    1    2 1 
    58    1    5 1 
    59    4    3 1 
    60   35   36 1 
    61   17   16 1 
    62   16   14 1 
    63   14    3 1 
    64   14   15 1 
    65    3    5 1 
    66    3   18 1 
    67   20   18 1 
    68   18   21 1 
    69   18   19 1 
    70   21   22 1 
