@<TRIPOS>MOLECULE
C:\Users\Praveer\PycharmProjects\pdb_to_mol2_converter\data\pdb\apar.pdb
   22    22     0     0     0
SMALL
GASTEIGER

@<TRIPOS>ATOM
      1 C1          1.4390   -0.0460    0.0520 C.3       1 APA1        0.0000
      2 H1          1.7780   -0.6760   -0.8020 H         1 APA1        0.0000
      3 O1          1.9040   -0.6460    1.2340 O.3       1 APA1        0.0000
      4 HO1         2.8610   -0.5450    1.2110 H         1 APA1        0.0000
      5 C5         -0.5310    0.8990    0.9930 C.3       1 APA1        0.0000
      6 H5         -0.2780    0.4620    1.9870 H         1 APA1        0.0000
      7 O5          0.0160    0.0690   -0.0390 O.3       1 APA1        0.0000
      8 C2          2.0490    1.3500   -0.1070 C.3       1 APA1        0.0000
      9 H2          1.7460    1.7210   -1.1170 H         1 APA1        0.0000
     10 O2          3.4730    1.3420   -0.0480 O.3       1 APA1        0.0000
     11 HO2         3.8220    2.1510   -0.4370 H         1 APA1        0.0000
     12 C3          1.5370    2.2960    0.9360 C.3       1 APA1        0.0000
     13 H31         1.9310    3.3240    0.7620 H         1 APA1        0.0000
     14 H32         1.8910    1.9640    1.9410 H         1 APA1        0.0000
     15 C4          0.0430    2.3110    0.9020 C.3       1 APA1        0.0000
     16 H4         -0.3000    2.7530   -0.0650 H         1 APA1        0.0000
     17 O4         -0.4260    3.1420    1.9470 O.3       1 APA1        0.0000
     18 HO4        -0.1260    2.7910    2.7900 H         1 APA1        0.0000
     19 C6         -2.0610    0.8520    0.8280 C.3       1 APA1        0.0000
     20 H61        -2.5560    1.4630    1.6110 H         1 APA1        0.0000
     21 H62        -2.4200   -0.1960    0.9090 H         1 APA1        0.0000
     22 H63        -2.3500    1.2480   -0.1680 H         1 APA1        0.0000
@<TRIPOS>BOND
     1    9    8 1 
     2    2    1 1 
     3   11   10 1 
     4   22   19 1 
     5    8   10 1 
     6    8    1 1 
     7    8   12 1 
     8   16   15 1 
     9    7    1 1 
    10    7    5 1 
    11    1    3 1 
    12   13   12 1 
    13   19   21 1 
    14   19    5 1 
    15   19   20 1 
    16   15   12 1 
    17   15    5 1 
    18   15   17 1 
    19   12   14 1 
    20    5    6 1 
    21    4    3 1 
    22   17   18 1 
