@<TRIPOS>MOLECULE
C:\Users\Praveer\PycharmProjects\pdb_to_mol2_converter\data\pdb\apnh.pdb
   23    23     0     0     0
SMALL
GASTEIGER

@<TRIPOS>ATOM
      1 N           1.9170    1.1040    0.0940 N.am      1 APN1        0.0000
      2 CA          1.2350    2.3890    0.0450 C.3       1 APN1        0.0000
      3 CB          2.3780    3.3810    0.3220 C.3       1 APN1        0.0000
      4 CG          3.6040    2.7150   -0.3190 C.3       1 APN1        0.0000
      5 CD          3.3710    1.2260   -0.0570 C.3       1 APN1        0.0000
      6 CY          1.2440   -0.0780    0.1760 C.2       1 APN1        0.0000
      7 OY          0.0350   -0.1430    0.3700 O.2       1 APN1        0.0000
      8 C           0.5970    2.6210   -1.3230 C.2       1 APN1        0.0000
      9 HA          0.4730    2.4610    0.8390 H         1 APN1        0.0000
     10 HB1         2.5320    3.4680    1.4110 H         1 APN1        0.0000
     11 HB2         2.1960    4.3980   -0.0490 H         1 APN1        0.0000
     12 HG1         4.5600    3.0840    0.0760 H         1 APN1        0.0000
     13 HG2         3.6090    2.9060   -1.4060 H         1 APN1        0.0000
     14 HD1         3.7520    0.6000   -0.8800 H         1 APN1        0.0000
     15 HD2         3.8500    0.9020    0.8810 H         1 APN1        0.0000
     16 CAY         2.0280   -1.3360    0.0590 C.3       1 APN1        0.0000
     17 HY1         2.7730   -1.4040    0.8780 H         1 APN1        0.0000
     18 HY2         2.5420   -1.3780   -0.9240 H         1 APN1        0.0000
     19 HY3         1.3340   -2.2020    0.1320 H         1 APN1        0.0000
     20 O           0.8940    1.9280   -2.2960 O.2       1 APN1        0.0000
     21 NT         -0.2930    3.6470   -1.3950 N.am      1 APN1        0.0000
     22 HT1        -0.5290    4.1620   -0.5770 H         1 APN1        0.0000
     23 HT2        -0.7380    3.7930   -2.2740 H         1 APN1        0.0000
@<TRIPOS>BOND
     1   20    8 2 
     2   23   21 1 
     3   13    4 1 
     4   21    8 am
     5   21   22 1 
     6    8    2 1 
     7   18   16 1 
     8   14    5 1 
     9    4    5 1 
    10    4   12 1 
    11    4    3 1 
    12    5    1 1 
    13    5   15 1 
    14   11    3 1 
    15    2    1 1 
    16    2    3 1 
    17    2    9 1 
    18   16   19 1 
    19   16    6 1 
    20   16   17 1 
    21    1    6 am
    22    6    7 2 
    23    3   10 1 
