@<TRIPOS>MOLECULE
C:\Users\Praveer\PycharmProjects\pdb_to_mol2_converter\data\pdb\appc.pdb
  130   129     0     0     0
SMALL
GASTEIGER

@<TRIPOS>ATOM
      1 N           5.6940    3.4770    3.4320 N.4       1 APP1        0.0000
      2 C13         6.7240    4.4770    3.0020 C.3       1 APP1        0.0000
      3 H13A        6.7480    4.5380    1.9180 H         1 APP1        0.0000
      4 H13B        7.7100    4.1810    3.3380 H         1 APP1        0.0000
      5 H13C        6.5050    5.4610    3.3940 H         1 APP1        0.0000
      6 C14         6.0620    2.1450    2.8410 C.3       1 APP1        0.0000
      7 H14A        7.0060    1.7670    3.1870 H         1 APP1        0.0000
      8 H14B        6.0670    2.2040    1.7500 H         1 APP1        0.0000
      9 H14C        5.2800    1.4040    3.0330 H         1 APP1        0.0000
     10 C15         5.6570    3.3700    4.9230 C.3       1 APP1        0.0000
     11 H15A        5.3910    4.3150    5.3740 H         1 APP1        0.0000
     12 H15B        6.6130    3.0490    5.3130 H         1 APP1        0.0000
     13 H15C        4.9110    2.6370    5.2140 H         1 APP1        0.0000
     14 C12         4.3300    3.8740    2.8880 C.3       1 APP1        0.0000
     15 H12A        4.3830    3.8530    1.7930 H         1 APP1        0.0000
     16 H12B        4.0760    4.8890    3.1520 H         1 APP1        0.0000
     17 C11         3.1420    2.9520    3.2440 C.3       1 APP1        0.0000
     18 H11A        2.4440    3.5050    3.9110 H         1 APP1        0.0000
     19 H11B        3.4520    2.0360    3.7980 H         1 APP1        0.0000
     20 P           3.2140    1.7110    0.9770 P.3       1 APP1        0.0000
     21 O13         3.8140    0.5550    1.6870 O.3       1 APP1        0.0000
     22 O14         4.1820    2.6080    0.2900 O.2       1 APP1        0.0000
     23 O11         2.0880    1.2470   -0.0200 O.3       1 APP1        0.0000
     24 O12         2.4520    2.6010    2.0470 O.3       1 APP1        0.0000
     25 C1          1.5390   -0.0740    0.0350 C.3       1 APP1        0.0000
     26 HA          1.8530   -0.6480    0.9400 H         1 APP1        0.0000
     27 HB          1.8840   -0.6380   -0.8590 H         1 APP1        0.0000
     28 C2         -0.0100   -0.0420    0.0380 C.3       1 APP1        0.0000
     29 HS         -0.3210    0.5120   -0.8800 H         1 APP1        0.0000
     30 O21        -0.4520    0.6110    1.2440 O.3       1 APP1        0.0000
     31 C21        -1.5580    1.3200    1.1060 C.2       1 APP1        0.0000
     32 O22        -2.1960    1.4780    0.0810 O.2       1 APP1        0.0000
     33 C22        -1.9360    1.9350    2.4520 C.3       1 APP1        0.0000
     34 H2R        -2.7460    2.6660    2.2570 H         1 APP1        0.0000
     35 H2S        -1.0500    2.4770    2.8410 H         1 APP1        0.0000
     36 C3         -0.5720   -1.4930   -0.0350 C.3       1 APP1        0.0000
     37 HX          0.0400   -2.1170    0.6540 H         1 APP1        0.0000
     38 HY         -0.4090   -1.8520   -1.0790 H         1 APP1        0.0000
     39 O31        -1.9600   -1.5700    0.3590 O.3       1 APP1        0.0000
     40 C31        -2.5380   -2.7270    0.0580 C.2       1 APP1        0.0000
     41 O32        -2.0080   -3.6440   -0.5430 O.2       1 APP1        0.0000
     42 C32        -3.9520   -2.7630    0.6410 C.3       1 APP1        0.0000
     43 H2X        -4.1250   -1.8390    1.2290 H         1 APP1        0.0000
     44 H2Y        -3.9900   -3.6340    1.3280 H         1 APP1        0.0000
     45 C23        -2.4020    0.8700    3.4700 C.3       1 APP1        0.0000
     46 H3R        -1.5550    0.1690    3.6610 H         1 APP1        0.0000
     47 H3S        -3.2370    0.2720    3.0450 H         1 APP1        0.0000
     48 C24        -2.8390    1.4800    4.8120 C.3       1 APP1        0.0000
     49 H4R        -2.0500    2.1930    5.1410 H         1 APP1        0.0000
     50 H4S        -2.8880    0.6740    5.5760 H         1 APP1        0.0000
     51 C25        -4.1910    2.2190    4.7660 C.3       1 APP1        0.0000
     52 H5R        -4.1820    2.9420    3.9220 H         1 APP1        0.0000
     53 H5S        -4.3050    2.8110    5.7030 H         1 APP1        0.0000
     54 C26        -5.4220    1.3040    4.6300 C.3       1 APP1        0.0000
     55 H6R        -5.2880    0.6180    3.7650 H         1 APP1        0.0000
     56 H6S        -6.3150    1.9350    4.4180 H         1 APP1        0.0000
     57 C27        -5.7010    0.4860    5.9000 C.3       1 APP1        0.0000
     58 H7R        -5.8450    1.1850    6.7550 H         1 APP1        0.0000
     59 H7S        -4.8090   -0.1350    6.1190 H         1 APP1        0.0000
     60 C28        -6.9410   -0.4180    5.7750 C.3       1 APP1        0.0000
     61 H8R        -6.8100   -1.1350    4.9360 H         1 APP1        0.0000
     62 H8S        -7.8050    0.2390    5.5200 H         1 APP1        0.0000
     63 C29        -7.2920   -1.1950    7.0600 C.3       1 APP1        0.0000
     64 H9R        -8.4040   -1.2080    7.1460 H         1 APP1        0.0000
     65 H9S        -6.9000   -0.6600    7.9500 H         1 APP1        0.0000
     66 C210       -6.8330   -2.6690    7.0720 C.3       1 APP1        0.0000
     67 H10R       -7.1740   -3.1400    6.1240 H         1 APP1        0.0000
     68 H10S       -7.3520   -3.1970    7.9050 H         1 APP1        0.0000
     69 C211       -5.3160   -2.8540    7.2560 C.3       1 APP1        0.0000
     70 H11R       -5.1040   -3.2040    8.2930 H         1 APP1        0.0000
     71 H11S       -4.8270   -1.8640    7.1590 H         1 APP1        0.0000
     72 C212       -4.6560   -3.8330    6.2650 C.3       1 APP1        0.0000
     73 H12R       -5.3770   -4.1500    5.4820 H         1 APP1        0.0000
     74 H12S       -4.3780   -4.7540    6.8170 H         1 APP1        0.0000
     75 C213       -3.4180   -3.2400    5.5510 C.3       1 APP1        0.0000
     76 H13R       -2.9490   -2.4860    6.2280 H         1 APP1        0.0000
     77 C216       -3.8450   -2.5240    4.2580 C.3       1 APP1        0.0000
     78 H16R       -4.5750   -1.7200    4.4860 H         1 APP1        0.0000
     79 H16S       -4.3250   -3.2440    3.5610 H         1 APP1        0.0000
     80 H16T       -2.9600   -2.0760    3.7580 H         1 APP1        0.0000
     81 C214       -2.3270   -4.2910    5.2600 C.3       1 APP1        0.0000
     82 H14R       -1.5890   -3.8250    4.5650 H         1 APP1        0.0000
     83 H14S       -2.7790   -5.1660    4.7420 H         1 APP1        0.0000
     84 C215       -1.5860   -4.7410    6.5270 C.3       1 APP1        0.0000
     85 H15R       -2.2770   -5.2370    7.2400 H         1 APP1        0.0000
     86 H15S       -1.1310   -3.8670    7.0420 H         1 APP1        0.0000
     87 H15T       -0.7760   -5.4560    6.2690 H         1 APP1        0.0000
     88 C33        -5.0430   -2.9230   -0.4410 C.3       1 APP1        0.0000
     89 H3X        -4.7940   -3.7910   -1.0960 H         1 APP1        0.0000
     90 H3Y        -5.0610   -2.0120   -1.0820 H         1 APP1        0.0000
     91 C34        -6.4510   -3.1470    0.1430 C.3       1 APP1        0.0000
     92 H4X        -6.4750   -4.1090    0.7000 H         1 APP1        0.0000
     93 H4Y        -7.1620   -3.2380   -0.7090 H         1 APP1        0.0000
     94 C35        -6.9280   -2.0110    1.0670 C.3       1 APP1        0.0000
     95 H5X        -6.6400   -1.0430    0.5980 H         1 APP1        0.0000
     96 H5Y        -6.4050   -2.0820    2.0450 H         1 APP1        0.0000
     97 C36        -8.4520   -1.9930    1.2930 C.3       1 APP1        0.0000
     98 H6X        -8.7840   -2.9530    1.7440 H         1 APP1        0.0000
     99 H6Y        -8.9400   -1.9040    0.2950 H         1 APP1        0.0000
    100 C37        -8.9140   -0.8120    2.1700 C.3       1 APP1        0.0000
    101 H7X        -8.2890    0.0740    1.9090 H         1 APP1        0.0000
    102 H7Y        -8.7350   -1.0450    3.2420 H         1 APP1        0.0000
    103 C38       -10.3860   -0.4190    1.9400 C.3       1 APP1        0.0000
    104 H8X       -11.0670   -1.2210    2.2970 H         1 APP1        0.0000
    105 H8Y       -10.5360   -0.3090    0.8410 H         1 APP1        0.0000
    106 C39       -10.7710    0.9200    2.5940 C.3       1 APP1        0.0000
    107 H9X        -9.9830    1.6630    2.3270 H         1 APP1        0.0000
    108 H9Y       -10.7830    0.8290    3.7010 H         1 APP1        0.0000
    109 C310      -12.1120    1.4760    2.0820 C.3       1 APP1        0.0000
    110 H10X      -12.2730    1.1470    1.0310 H         1 APP1        0.0000
    111 H10Y      -12.0320    2.5870    2.0660 H         1 APP1        0.0000
    112 C311      -13.3330    1.0830    2.9300 C.3       1 APP1        0.0000
    113 H11X      -13.0480    0.2690    3.6360 H         1 APP1        0.0000
    114 H11Y      -14.1310    0.6920    2.2550 H         1 APP1        0.0000
    115 C312      -13.9140    2.2700    3.7200 C.3       1 APP1        0.0000
    116 H12X      -13.0970    2.7780    4.2800 H         1 APP1        0.0000
    117 H12Y      -14.6450    1.8820    4.4650 H         1 APP1        0.0000
    118 C313      -14.6390    3.2830    2.8170 C.3       1 APP1        0.0000
    119 H13X      -15.4470    2.7410    2.2780 H         1 APP1        0.0000
    120 H13Y      -13.9310    3.6780    2.0560 H         1 APP1        0.0000
    121 C314      -15.2390    4.4690    3.5900 C.3       1 APP1        0.0000
    122 H14X      -14.4060    5.0500    4.0510 H         1 APP1        0.0000
    123 H14Y      -15.8800    4.0800    4.4130 H         1 APP1        0.0000
    124 C315      -16.0780    5.4250    2.7200 C.3       1 APP1        0.0000
    125 H15X      -15.4330    5.8430    1.9130 H         1 APP1        0.0000
    126 H15Y      -16.3960    6.2780    3.3620 H         1 APP1        0.0000
    127 C316      -17.3310    4.8090    2.0860 C.3       1 APP1        0.0000
    128 H16X      -17.9740    4.3410    2.8620 H         1 APP1        0.0000
    129 H16Y      -17.0610    4.0330    1.3390 H         1 APP1        0.0000
    130 H16Z      -17.9250    5.5940    1.5680 H         1 APP1        0.0000
@<TRIPOS>BOND
     1   89   88 1 
     2   90   88 1 
     3   38   36 1 
     4   29   28 1 
     5   27   25 1 
     6   93   91 1 
     7   41   40 2 
     8   88   91 1 
     9   88   42 1 
    10   36   28 1 
    11   36   39 1 
    12   36   37 1 
    13   23   25 1 
    14   23   20 1 
    15   25   28 1 
    16   25   26 1 
    17   28   30 1 
    18   40   39 1 
    19   40   42 1 
    20   32   31 2 
    21   91   92 1 
    22   91   94 1 
    23   22   20 2 
    24   99   97 1 
    25   95   94 1 
    26   42   43 1 
    27   42   44 1 
    28  105  103 1 
    29   20   21 1 
    30   20   24 1 
    31  110  109 1 
    32   94   97 1 
    33   94   96 1 
    34   31   30 1 
    35   31   33 1 
    36   97   98 1 
    37   97  100 1 
    38  129  127 1 
    39  130  127 1 
    40    8    6 1 
    41   15   14 1 
    42  101  100 1 
    43  125  124 1 
    44    3    2 1 
    45  103  100 1 
    46  103  104 1 
    47  103  106 1 
    48   24   17 1 
    49  120  118 1 
    50  111  109 1 
    51  109  106 1 
    52  109  112 1 
    53  127  124 1 
    54  127  128 1 
    55  100  102 1 
    56  114  112 1 
    57   34   33 1 
    58  119  118 1 
    59  107  106 1 
    60   33   35 1 
    61   33   45 1 
    62  106  108 1 
    63  124  126 1 
    64  124  121 1 
    65  118  121 1 
    66  118  115 1 
    67    6    9 1 
    68    6    7 1 
    69    6    1 1 
    70   14   16 1 
    71   14   17 1 
    72   14    1 1 
    73  112  113 1 
    74  112  115 1 
    75    2    4 1 
    76    2    5 1 
    77    2    1 1 
    78   47   45 1 
    79   17   19 1 
    80   17   18 1 
    81    1   10 1 
    82   45   46 1 
    83   45   48 1 
    84   79   77 1 
    85  121  122 1 
    86  121  123 1 
    87  115  116 1 
    88  115  117 1 
    89   80   77 1 
    90   55   54 1 
    91   52   51 1 
    92   77   78 1 
    93   77   75 1 
    94   56   54 1 
    95   82   81 1 
    96   54   51 1 
    97   54   57 1 
    98   83   81 1 
    99   51   48 1 
   100   51   53 1 
   101   48   49 1 
   102   48   50 1 
   103   10   13 1 
   104   10   12 1 
   105   10   11 1 
   106   61   60 1 
   107   81   75 1 
   108   81   84 1 
   109   73   72 1 
   110   62   60 1 
   111   75   76 1 
   112   75   72 1 
   113   60   57 1 
   114   60   63 1 
   115   57   59 1 
   116   57   58 1 
   117   67   66 1 
   118   72   74 1 
   119   72   69 1 
   120   87   84 1 
   121   84   86 1 
   122   84   85 1 
   123   63   66 1 
   124   63   64 1 
   125   63   65 1 
   126   66   69 1 
   127   66   68 1 
   128   71   69 1 
   129   69   70 1 
