@<TRIPOS>MOLECULE
C:\Users\Praveer\PycharmProjects\pdb_to_mol2_converter\data\pdb\apse.pdb
   44    44     0     0     0
SMALL
GASTEIGER

@<TRIPOS>ATOM
      1 C1          2.3820    1.2450   -0.0350 C.2       1 APS1        0.0000
      2 O11         3.2240    1.3290    0.9090 O.co2     1 APS1        0.0000
      3 O12         2.2020    2.0570   -0.9780 O.co2     1 APS1        0.0000
      4 C2          1.4420   -0.0200    0.0020 C.3       1 APS1        0.0000
      5 O2          1.6420   -0.7380    1.1870 O.3       1 APS1        0.0000
      6 HO2         2.4270   -0.2750    1.5180 H         1 APS1        0.0000
      7 C6          1.6180   -0.5900   -2.3420 C.3       1 APS1        0.0000
      8 H6          2.0360    0.4080   -2.6030 H         1 APS1        0.0000
      9 O6          1.9280   -0.9440   -0.9830 O.3       1 APS1        0.0000
     10 C3         -0.0590    0.2320   -0.1800 C.3       1 APS1        0.0000
     11 H31        -0.3730    1.0640    0.4890 H         1 APS1        0.0000
     12 H32        -0.6030   -0.6800    0.1600 H         1 APS1        0.0000
     13 C4         -0.4420    0.5170   -1.5950 C.3       1 APS1        0.0000
     14 H4         -0.0210    1.5080   -1.8900 H         1 APS1        0.0000
     15 O4         -1.8510    0.5960   -1.7170 O.3       1 APS1        0.0000
     16 HO4        -2.1540   -0.1710   -2.2240 H         1 APS1        0.0000
     17 C5          0.1140   -0.5510   -2.5120 C.3       1 APS1        0.0000
     18 H5         -0.0990   -0.2140   -3.5570 H         1 APS1        0.0000
     19 N51        -0.4430   -1.8710   -2.2910 N.am      1 APS1        0.0000
     20 HN51        0.0590   -2.4250   -1.6350 H         1 APS1        0.0000
     21 C51        -1.5370   -2.3230   -2.9100 C.2       1 APS1        0.0000
     22 O51        -2.1930   -1.6110   -3.6460 O.2       1 APS1        0.0000
     23 CT51       -1.9120   -3.7590   -2.6560 C.3       1 APS1        0.0000
     24 HT51       -2.1910   -3.8950   -1.5920 H         1 APS1        0.0000
     25 HT52       -1.0560   -4.4180   -2.9070 H         1 APS1        0.0000
     26 HT53       -2.7760   -4.0240   -3.3020 H         1 APS1        0.0000
     27 C7          2.3720   -1.6120   -3.1940 C.3       1 APS1        0.0000
     28 H7          1.9900   -2.6270   -2.9220 H         1 APS1        0.0000
     29 N71         3.7690   -1.5270   -2.7860 N.am      1 APS1        0.0000
     30 HN71        4.1070   -0.6040   -2.6190 H         1 APS1        0.0000
     31 C71         4.5260   -2.5740   -2.4200 C.2       1 APS1        0.0000
     32 O71         4.1590   -3.7410   -2.5320 O.2       1 APS1        0.0000
     33 CT71        5.8910   -2.2510   -1.8650 C.3       1 APS1        0.0000
     34 HT71        5.9940   -1.1630   -1.6860 H         1 APS1        0.0000
     35 HT72        6.6650   -2.5780   -2.5870 H         1 APS1        0.0000
     36 HT73        6.0480   -2.7830   -0.9040 H         1 APS1        0.0000
     37 C8          2.1640   -1.4510   -4.7160 C.3       1 APS1        0.0000
     38 H8          2.2380   -0.3740   -4.9880 H         1 APS1        0.0000
     39 O8          0.9190   -1.9740   -5.1790 O.3       1 APS1        0.0000
     40 HO8         0.1980   -1.5760   -4.6800 H         1 APS1        0.0000
     41 C9          3.2430   -2.2250   -5.4930 C.3       1 APS1        0.0000
     42 H91         3.2300   -3.2960   -5.1940 H         1 APS1        0.0000
     43 H92         4.2500   -1.8110   -5.2900 H         1 APS1        0.0000
     44 H93         3.0580   -2.1640   -6.5860 H         1 APS1        0.0000
@<TRIPOS>BOND
     1   44   41 1 
     2   41   43 1 
     3   41   42 1 
     4   41   37 1 
     5   39   37 1 
     6   39   40 1 
     7   38   37 1 
     8   37   27 1 
     9   22   21 2 
    10   18   17 1 
    11   26   23 1 
    12   27   28 1 
    13   27   29 1 
    14   27    7 1 
    15   21   23 1 
    16   21   19 am
    17   25   23 1 
    18   29   30 1 
    19   29   31 am
    20   23   24 1 
    21    8    7 1 
    22   35   33 1 
    23   32   31 2 
    24   17    7 1 
    25   17   19 1 
    26   17   13 1 
    27   31   33 1 
    28    7    9 1 
    29   19   20 1 
    30   16   15 1 
    31   14   13 1 
    32   33   34 1 
    33   33   36 1 
    34   15   13 1 
    35   13   10 1 
    36    9    4 1 
    37    3    1 ar
    38   10    4 1 
    39   10   12 1 
    40   10   11 1 
    41    1    4 1 
    42    1    2 ar
    43    4    5 1 
    44    5    6 1 
