@<TRIPOS>MOLECULE
C:\Users\Praveer\PycharmProjects\pdb_to_mol2_converter\data\pdb\apsi.pdb
   24    24     0     0     0
SMALL
GASTEIGER

@<TRIPOS>ATOM
      1 O5          1.4010    0.0270    0.3650 O.3       1 APS1        0.0000
      2 C2          1.9450    1.3160    0.0760 C.3       1 APS1        0.0000
      3 O2          2.2820    1.4710   -1.2770 O.3       1 APS1        0.0000
      4 HO2         1.4380    1.4530   -1.7480 H         1 APS1        0.0000
      5 C5         -0.0050    0.0060    0.0530 C.3       1 APS1        0.0000
      6 H5         -0.1320   -0.5670   -0.8950 H         1 APS1        0.0000
      7 C6         -0.7150   -0.7130    1.1720 C.3       1 APS1        0.0000
      8 H61        -1.8170   -0.6690    1.0130 H         1 APS1        0.0000
      9 H62        -0.4830   -0.2270    2.1470 H         1 APS1        0.0000
     10 O6         -0.3230   -2.0830    1.2320 O.3       1 APS1        0.0000
     11 HO6         0.6400   -2.1360    1.2800 H         1 APS1        0.0000
     12 C1          3.1800    1.5050    0.9660 C.3       1 APS1        0.0000
     13 H11         2.9440    1.1720    2.0000 H         1 APS1        0.0000
     14 H12         3.4090    2.5940    1.0090 H         1 APS1        0.0000
     15 O1          4.3700    0.8330    0.5210 O.3       1 APS1        0.0000
     16 HO1         4.3900    0.8750   -0.4440 H         1 APS1        0.0000
     17 C3          0.7740    2.2430    0.4790 C.3       1 APS1        0.0000
     18 H3          0.6850    2.2060    1.5880 H         1 APS1        0.0000
     19 O3          0.8760    3.6060    0.1020 O.3       1 APS1        0.0000
     20 HO3         0.9450    3.6600   -0.8590 H         1 APS1        0.0000
     21 C4         -0.4160    1.4700   -0.1200 C.3       1 APS1        0.0000
     22 H4         -1.3380    1.6970    0.4620 H         1 APS1        0.0000
     23 O4         -0.6620    1.8110   -1.4690 O.3       1 APS1        0.0000
     24 HO4        -1.6090    1.8980   -1.6280 H         1 APS1        0.0000
@<TRIPOS>BOND
     1    4    3 1 
     2   24   23 1 
     3   23   21 1 
     4    3    2 1 
     5    6    5 1 
     6   20   19 1 
     7   16   15 1 
     8   21    5 1 
     9   21   22 1 
    10   21   17 1 
    11    5    1 1 
    12    5    7 1 
    13    2    1 1 
    14    2   17 1 
    15    2   12 1 
    16   19   17 1 
    17   17   18 1 
    18   15   12 1 
    19   12   14 1 
    20   12   13 1 
    21    8    7 1 
    22    7   10 1 
    23    7    9 1 
    24   10   11 1 
