@<TRIPOS>MOLECULE
C:\Users\Praveer\PycharmProjects\pdb_to_mol2_converter\data\pdb\apsip.pdb
   24    24     0     0     0
SMALL
GASTEIGER

@<TRIPOS>ATOM
      1 C2          1.5270   -0.0890    0.0770 C.3       1 APS1        0.0000
      2 O2          1.9720   -0.7690    1.2260 O.3       1 APS1        0.0000
      3 HO2         2.8580   -1.0690    0.9930 H         1 APS1        0.0000
      4 C6         -0.4020    0.9030    1.1040 C.3       1 APS1        0.0000
      5 H61        -0.2060    0.4000    2.0780 H         1 APS1        0.0000
      6 H62        -1.5080    0.9840    0.9990 H         1 APS1        0.0000
      7 O6          0.1070    0.1060    0.0210 O.3       1 APS1        0.0000
      8 C3          2.1950    1.2960    0.0100 C.3       1 APS1        0.0000
      9 H3          1.8600    1.7610   -0.9470 H         1 APS1        0.0000
     10 O3          3.6280    1.2350   -0.0470 O.3       1 APS1        0.0000
     11 HO3         3.8960    0.5000   -0.6200 H         1 APS1        0.0000
     12 C4          1.7110    2.2010    1.1360 C.3       1 APS1        0.0000
     13 H4          2.1280    3.2230    0.9640 H         1 APS1        0.0000
     14 O4          2.1660    1.7810    2.4250 O.3       1 APS1        0.0000
     15 HO4         2.2480    0.8160    2.3930 H         1 APS1        0.0000
     16 C5          0.2010    2.2930    1.0860 C.3       1 APS1        0.0000
     17 H5         -0.1040    2.7960    0.1370 H         1 APS1        0.0000
     18 O5         -0.3140    3.0550    2.1640 O.3       1 APS1        0.0000
     19 HO5         0.2770    2.8910    2.9130 H         1 APS1        0.0000
     20 C1          1.8620   -0.9230   -1.1640 C.3       1 APS1        0.0000
     21 H1A         1.5970   -0.3480   -2.0770 H         1 APS1        0.0000
     22 H1B         1.2130   -1.8290   -1.1390 H         1 APS1        0.0000
     23 O1          3.2340   -1.3500   -1.2460 O.3       1 APS1        0.0000
     24 HO1         3.3310   -2.0580   -1.8970 H         1 APS1        0.0000
@<TRIPOS>BOND
     1   21   20 1 
     2   24   23 1 
     3   23   20 1 
     4   20   22 1 
     5   20    1 1 
     6    9    8 1 
     7   11   10 1 
     8   10    8 1 
     9    8    1 1 
    10    8   12 1 
    11    7    1 1 
    12    7    4 1 
    13    1    2 1 
    14   17   16 1 
    15   13   12 1 
    16    3    2 1 
    17    6    4 1 
    18   16    4 1 
    19   16   12 1 
    20   16   18 1 
    21    4    5 1 
    22   12   14 1 
    23   18   19 1 
    24   15   14 1 
