@<TRIPOS>MOLECULE
C:\Users\Praveer\PycharmProjects\pdb_to_mol2_converter\data\pdb\aquina.pdb
   29    29     0     0     0
SMALL
GASTEIGER

@<TRIPOS>ATOM
      1 C1          1.7080   -1.9040    1.2720 C.3       1 AQU1        0.0000
      2 H1          2.1130   -2.2860    2.2390 H         1 AQU1        0.0000
      3 O1          2.1700   -2.7410    0.2500 O.3       1 AQU1        0.0000
      4 HO1         3.1310   -2.7160    0.2840 H         1 AQU1        0.0000
      5 C5          1.6290    0.0770   -0.0590 C.3       1 AQU1        0.0000
      6 H5          1.9810   -0.4740   -0.9630 H         1 AQU1        0.0000
      7 O5          2.1320   -0.5510    1.1280 O.3       1 AQU1        0.0000
      8 C2          0.1940   -1.9860    1.3300 C.3       1 AQU1        0.0000
      9 H2         -0.0990   -1.3870    2.2320 H         1 AQU1        0.0000
     10 N          -0.2600   -3.3560    1.5300 N.am      1 AQU1        0.0000
     11 HN          0.3250   -4.0600    1.1390 H         1 AQU1        0.0000
     12 C          -1.3980   -3.6820    2.1520 C.2       1 AQU1        0.0000
     13 O          -2.1690   -2.8280    2.5690 O.2       1 AQU1        0.0000
     14 CT         -1.6980   -5.1500    2.2990 C.3       1 AQU1        0.0000
     15 HT1        -0.8030   -5.6890    2.6710 H         1 AQU1        0.0000
     16 HT2        -2.0080   -5.5690    1.3190 H         1 AQU1        0.0000
     17 HT3        -2.5280   -5.2800    3.0250 H         1 AQU1        0.0000
     18 C3         -0.4280   -1.3150    0.1230 C.3       1 AQU1        0.0000
     19 H3         -0.1630   -1.9100   -0.7850 H         1 AQU1        0.0000
     20 O3         -1.8510   -1.2930    0.2250 O.3       1 AQU1        0.0000
     21 HO3        -2.1180   -1.7350    1.0510 H         1 AQU1        0.0000
     22 C4          0.1090    0.0890   -0.0440 C.3       1 AQU1        0.0000
     23 H4         -0.2220    0.7060    0.8260 H         1 AQU1        0.0000
     24 O4         -0.4020    0.6890   -1.2290 O.3       1 AQU1        0.0000
     25 HO4        -1.3420    0.4670   -1.2610 H         1 AQU1        0.0000
     26 C6          2.2480    1.4860   -0.0860 C.3       1 AQU1        0.0000
     27 H61         1.9250    2.0300   -0.9980 H         1 AQU1        0.0000
     28 H62         3.3560    1.4190   -0.0820 H         1 AQU1        0.0000
     29 H63         1.9250    2.0640    0.8050 H         1 AQU1        0.0000
@<TRIPOS>BOND
     1   25   24 1 
     2   24   22 1 
     3   27   26 1 
     4    6    5 1 
     5   19   18 1 
     6   26   28 1 
     7   26    5 1 
     8   26   29 1 
     9    5   22 1 
    10    5    7 1 
    11   22   18 1 
    12   22   23 1 
    13   18   20 1 
    14   18    8 1 
    15   20   21 1 
    16    3    4 1 
    17    3    1 1 
    18    7    1 1 
    19   11   10 1 
    20    1    8 1 
    21    1    2 1 
    22   16   14 1 
    23    8   10 1 
    24    8    9 1 
    25   10   12 am
    26   12   14 1 
    27   12   13 2 
    28   14   15 1 
    29   14   17 1 
