@<TRIPOS>MOLECULE
C:\Users\Praveer\PycharmProjects\pdb_to_mol2_converter\data\pdb\aqui.pdb
   23    23     0     0     0
SMALL
GASTEIGER

@<TRIPOS>ATOM
      1 C1          1.5720   -1.9850    1.3850 C.3       1 AQU1        0.0000
      2 H1          1.9400   -2.3470    2.3750 H         1 AQU1        0.0000
      3 O1          2.0590   -2.8540    0.3960 O.3       1 AQU1        0.0000
      4 HO1         3.0160   -2.8710    0.4850 H         1 AQU1        0.0000
      5 C5          1.5580   -0.0310    0.0050 C.3       1 AQU1        0.0000
      6 H5          1.9210   -0.6070   -0.8790 H         1 AQU1        0.0000
      7 O5          2.0290   -0.6440    1.2150 O.3       1 AQU1        0.0000
      8 C2          0.0480   -2.0070    1.4080 C.3       1 AQU1        0.0000
      9 H2         -0.2730   -1.3780    2.2740 H         1 AQU1        0.0000
     10 O2         -0.4810   -3.3210    1.6290 O.3       1 AQU1        0.0000
     11 HO2        -0.0060   -3.9310    1.0490 H         1 AQU1        0.0000
     12 C3         -0.5240   -1.3810    0.1520 C.3       1 AQU1        0.0000
     13 H3         -0.2140   -1.9990   -0.7260 H         1 AQU1        0.0000
     14 O3         -1.9510   -1.3660    0.1880 O.3       1 AQU1        0.0000
     15 HO3        -2.2310   -2.1850    0.6190 H         1 AQU1        0.0000
     16 C4          0.0360    0.0120   -0.0240 C.3       1 AQU1        0.0000
     17 H4         -0.3090    0.6490    0.8250 H         1 AQU1        0.0000
     18 O4         -0.4320    0.5970   -1.2330 O.3       1 AQU1        0.0000
     19 HO4        -1.3820    0.4290   -1.2710 H         1 AQU1        0.0000
     20 C6          2.2060    1.3640   -0.0390 C.3       1 AQU1        0.0000
     21 H61         1.9100    1.8970   -0.9670 H         1 AQU1        0.0000
     22 H62         3.3130    1.2740   -0.0170 H         1 AQU1        0.0000
     23 H63         1.8820    1.9660    0.8350 H         1 AQU1        0.0000
@<TRIPOS>BOND
     1   19   18 1 
     2   18   16 1 
     3   21   20 1 
     4    6    5 1 
     5   13   12 1 
     6   20   22 1 
     7   20    5 1 
     8   20   23 1 
     9   16    5 1 
    10   16   12 1 
    11   16   17 1 
    12    5    7 1 
    13   12   14 1 
    14   12    8 1 
    15   14   15 1 
    16    3    4 1 
    17    3    1 1 
    18   11   10 1 
    19    7    1 1 
    20    1    8 1 
    21    1    2 1 
    22    8   10 1 
    23    8    9 1 
