@<TRIPOS>MOLECULE
C:\Users\Praveer\PycharmProjects\pdb_to_mol2_converter\data\pdb\ar3p.pdb
   18    18     0     0     0
SMALL
GASTEIGER

@<TRIPOS>ATOM
      1 O4'         1.3600   -0.0390   -0.0590 O.3       1 AR31        0.0000
      2 C1'         1.8380    1.3140    0.0280 C.3       1 AR31        0.0000
      3 C4'        -0.0770   -0.0160   -0.0640 C.3       1 AR31        0.0000
      4 H11'        2.3110    1.5610   -0.9350 H         1 AR31        0.0000
      5 H12'        2.6050    1.3700    0.8110 H         1 AR31        0.0000
      6 H41'       -0.4170   -0.3480    0.9290 H         1 AR31        0.0000
      7 H42'       -0.4540   -0.7290   -0.8090 H         1 AR31        0.0000
      8 C2'         0.6350    2.2090    0.3110 C.3       1 AR31        0.0000
      9 H22'        0.4520    2.2940    1.3940 H         1 AR31        0.0000
     10 O2'         0.7900    3.5040   -0.2530 O.3       1 AR31        0.0000
     11 H21'       -0.1510    3.8420   -0.2870 H         1 AR31        0.0000
     12 C3'        -0.5030    1.4210   -0.3400 C.3       1 AR31        0.0000
     13 H31'       -0.5350    1.5930   -1.4320 H         1 AR31        0.0000
     14 O3'        -1.7610    1.6670    0.2910 O.3       1 AR31        0.0000
     15 P          -2.6680    2.9230   -0.2110 P.3       1 AR31        0.0000
     16 O1P        -1.7200    4.1140   -0.1850 O.3       1 AR31        0.0000
     17 O2P        -3.7920    3.0070    0.8020 O.3       1 AR31        0.0000
     18 O3P        -3.1100    2.5280   -1.6090 O.2       1 AR31        0.0000
@<TRIPOS>BOND
     1   18   15 2 
     2   13   12 1 
     3    4    2 1 
     4    7    3 1 
     5   12    3 1 
     6   12   14 1 
     7   12    8 1 
     8   11   10 1 
     9   10    8 1 
    10   15   16 1 
    11   15   14 1 
    12   15   17 1 
    13    3    1 1 
    14    3    6 1 
    15    1    2 1 
    16    2    8 1 
    17    2    5 1 
    18    8    9 1 
