@<TRIPOS>MOLECULE
C:\Users\Praveer\PycharmProjects\pdb_to_mol2_converter\data\pdb\ara.pdb
   61    60     0     0     0
SMALL
GASTEIGER

@<TRIPOS>ATOM
      1 O1         -0.0040    0.0060    0.0070 O.co2     1 ARA1        0.0000
      2 O2          1.9600   -1.0370    0.0030 O.co2     1 ARA1        0.0000
      3 C1          1.2550    0.0040    0.0060 C.2       1 ARA1        0.0000
      4 C2          1.9420    1.3700    0.0070 C.3       1 ARA1        0.0000
      5 H2R         1.5930    1.9120    0.9090 H         1 ARA1        0.0000
      6 H2S         1.5920    1.9140   -0.8930 H         1 ARA1        0.0000
      7 C3          3.4850    1.2790    0.0050 C.3       1 ARA1        0.0000
      8 H3R         3.8100    0.7040   -0.8920 H         1 ARA1        0.0000
      9 H3S         3.8140    0.7080    0.9020 H         1 ARA1        0.0000
     10 C4          4.1530    2.6600   -0.0000 C.3       1 ARA1        0.0000
     11 H4R         3.8180    3.2230    0.8990 H         1 ARA1        0.0000
     12 H4S         3.8100    3.2190   -0.8990 H         1 ARA1        0.0000
     13 C5          5.6860    2.5750   -0.0090 C.3       1 ARA1        0.0000
     14 H5R         6.0070    1.9970   -0.9040 H         1 ARA1        0.0000
     15 H5S         6.0200    2.0130    0.8920 H         1 ARA1        0.0000
     16 C6          6.3570    3.9550   -0.0270 C.3       1 ARA1        0.0000
     17 H6R         6.0350    4.5270    0.8720 H         1 ARA1        0.0000
     18 H6S         6.0110    4.5120   -0.9260 H         1 ARA1        0.0000
     19 C7          7.8900    3.8660   -0.0490 C.3       1 ARA1        0.0000
     20 H7R         8.2040    3.2830   -0.9430 H         1 ARA1        0.0000
     21 H7S         8.2350    3.3130    0.8540 H         1 ARA1        0.0000
     22 C8          8.5620    5.2450   -0.0860 C.3       1 ARA1        0.0000
     23 H8R         8.2520    5.8260    0.8120 H         1 ARA1        0.0000
     24 H8S         8.2070    5.7970   -0.9850 H         1 ARA1        0.0000
     25 C9         10.0940    5.1550   -0.1250 C.3       1 ARA1        0.0000
     26 H9R        10.3980    4.5630   -1.0170 H         1 ARA1        0.0000
     27 H9S        10.4510    4.6130    0.7790 H         1 ARA1        0.0000
     28 C10        10.7670    6.5330   -0.1870 C.3       1 ARA1        0.0000
     29 H10R       10.4720    7.1240    0.7090 H         1 ARA1        0.0000
     30 H10S       10.3990    7.0760   -1.0860 H         1 ARA1        0.0000
     31 C11        12.2980    6.4410   -0.2490 C.3       1 ARA1        0.0000
     32 H11R       12.5880    5.8400   -1.1400 H         1 ARA1        0.0000
     33 H11S       12.6690    5.9080    0.6550 H         1 ARA1        0.0000
     34 C12        12.9700    7.8180   -0.3340 C.3       1 ARA1        0.0000
     35 H12R       12.6900    8.4180    0.5600 H         1 ARA1        0.0000
     36 H12S       12.5890    8.3530   -1.2340 H         1 ARA1        0.0000
     37 C13        14.5000    7.7250   -0.4190 C.3       1 ARA1        0.0000
     38 H13R       14.7770    7.1160   -1.3100 H         1 ARA1        0.0000
     39 H13S       14.8850    7.1990    0.4830 H         1 ARA1        0.0000
     40 C14        15.1720    9.1000   -0.5260 C.3       1 ARA1        0.0000
     41 H14R       14.9050    9.7080    0.3680 H         1 ARA1        0.0000
     42 H14S       14.7780    9.6280   -1.4230 H         1 ARA1        0.0000
     43 C15        16.7000    9.0050   -0.6330 C.3       1 ARA1        0.0000
     44 H15R       16.9640    8.3910   -1.5220 H         1 ARA1        0.0000
     45 H15S       17.0980    8.4860    0.2680 H         1 ARA1        0.0000
     46 C16        17.3710   10.3800   -0.7580 C.3       1 ARA1        0.0000
     47 H16R       17.1160   10.9940    0.1340 H         1 ARA1        0.0000
     48 H16S       16.9660   10.9020   -1.6550 H         1 ARA1        0.0000
     49 C17        18.8980   10.2840   -0.8840 C.3       1 ARA1        0.0000
     50 H17R       19.1510    9.6660   -1.7740 H         1 ARA1        0.0000
     51 H17S       19.3060    9.7680    0.0140 H         1 ARA1        0.0000
     52 C18        19.5680   11.6580   -1.0220 C.3       1 ARA1        0.0000
     53 H18R       19.3180   12.2770   -0.1300 H         1 ARA1        0.0000
     54 H18S       19.1560   12.1760   -1.9170 H         1 ARA1        0.0000
     55 C19        21.0930   11.5630   -1.1550 C.3       1 ARA1        0.0000
     56 H19R       21.3360   10.9390   -2.0450 H         1 ARA1        0.0000
     57 H19S       21.4990   11.0410   -0.2600 H         1 ARA1        0.0000
     58 C20        21.7760   12.9260   -1.2960 C.3       1 ARA1        0.0000
     59 H20R       21.5680   13.5590   -0.4070 H         1 ARA1        0.0000
     60 H20S       21.4020   13.4570   -2.1980 H         1 ARA1        0.0000
     61 H20T       22.8760   12.8040   -1.3910 H         1 ARA1        0.0000
@<TRIPOS>BOND
     1   60   58 1 
     2   56   55 1 
     3   54   52 1 
     4   50   49 1 
     5   48   46 1 
     6   44   43 1 
     7   42   40 1 
     8   61   58 1 
     9   38   37 1 
    10   58   55 1 
    11   58   59 1 
    12   36   34 1 
    13   55   52 1 
    14   55   57 1 
    15   32   31 1 
    16   30   28 1 
    17   52   49 1 
    18   52   53 1 
    19   26   25 1 
    20   24   22 1 
    21   20   19 1 
    22   18   16 1 
    23   14   13 1 
    24   12   10 1 
    25    6    4 1 
    26    8    7 1 
    27   49   46 1 
    28   49   51 1 
    29   46   43 1 
    30   46   47 1 
    31   43   40 1 
    32   43   45 1 
    33   40   37 1 
    34   40   41 1 
    35   37   34 1 
    36   37   39 1 
    37   34   31 1 
    38   34   35 1 
    39   31   28 1 
    40   31   33 1 
    41   28   25 1 
    42   28   29 1 
    43   25   22 1 
    44   25   27 1 
    45   22   19 1 
    46   22   23 1 
    47   19   16 1 
    48   19   21 1 
    49   16   13 1 
    50   16   17 1 
    51   13   10 1 
    52   13   15 1 
    53   10    7 1 
    54   10   11 1 
    55    2    3 ar
    56    7    4 1 
    57    7    9 1 
    58    3    4 1 
    59    3    1 ar
    60    4    5 1 
