@<TRIPOS>MOLECULE
C:\Users\Praveer\PycharmProjects\pdb_to_mol2_converter\data\pdb\aranp.pdb
   54    53     0     0     0
SMALL
GASTEIGER

@<TRIPOS>ATOM
      1 H1          0.0590   -0.0950    0.0230 H         1 ARA1        0.0000
      2 O1          1.0140   -0.0640   -0.0030 O.3       1 ARA1        0.0000
      3 O2          0.5270    2.1260    0.0800 O.2       1 ARA1        0.0000
      4 C1          1.3810    1.2620    0.0300 C.2       1 ARA1        0.0000
      5 C2          2.8890    1.4860   -0.0050 C.3       1 ARA1        0.0000
      6 H2R         3.1020    2.1880   -0.8380 H         1 ARA1        0.0000
      7 H2S         3.4120    0.5290   -0.2120 H         1 ARA1        0.0000
      8 C3          3.3980    2.0990    1.3190 C.3       1 ARA1        0.0000
      9 H3R         3.2150    1.3850    2.1540 H         1 ARA1        0.0000
     10 H3S         2.8220    3.0310    1.5310 H         1 ARA1        0.0000
     11 C4          4.8990    2.4350    1.2500 C.3       1 ARA1        0.0000
     12 H4R         5.0650    3.1360    0.4010 H         1 ARA1        0.0000
     13 H4S         5.4410    1.4950    1.0060 H         1 ARA1        0.0000
     14 C5          5.3970    3.0600    2.5320 C.2       1 ARA1        0.0000
     15 H5R         4.7510    3.8570    2.9330 H         1 ARA1        0.0000
     16 C6          6.5140    2.7350    3.2130 C.2       1 ARA1        0.0000
     17 H6R         6.7300    3.2790    4.1460 H         1 ARA1        0.0000
     18 C7          7.5390    1.6880    2.8370 C.3       1 ARA1        0.0000
     19 H7R         7.3530    1.2940    1.8150 H         1 ARA1        0.0000
     20 H7S         7.4260    0.8190    3.5210 H         1 ARA1        0.0000
     21 C8          8.9530    2.2100    2.9470 C.2       1 ARA1        0.0000
     22 H8R         9.1270    2.9530    3.7420 H         1 ARA1        0.0000
     23 C9          9.9940    1.8570    2.1660 C.2       1 ARA1        0.0000
     24 H9R        10.9710    2.3340    2.3480 H         1 ARA1        0.0000
     25 C10         9.9690    0.8470    1.0420 C.3       1 ARA1        0.0000
     26 H10R        9.8430    1.3860    0.0760 H         1 ARA1        0.0000
     27 H10S        9.0890    0.1730    1.1330 H         1 ARA1        0.0000
     28 C11        11.2200   -0.0010    1.0210 C.2       1 ARA1        0.0000
     29 H11R       11.6450   -0.2420    2.0080 H         1 ARA1        0.0000
     30 C12        11.8360   -0.4710   -0.0790 C.2       1 ARA1        0.0000
     31 H12R       12.7480   -1.0770    0.0510 H         1 ARA1        0.0000
     32 C13        11.3720   -0.2650   -1.5030 C.3       1 ARA1        0.0000
     33 H13R       11.6310    0.7680   -1.8240 H         1 ARA1        0.0000
     34 H13S       10.2610   -0.3270   -1.5460 H         1 ARA1        0.0000
     35 C14        12.0130   -1.2460   -2.4580 C.2       1 ARA1        0.0000
     36 H14R       13.1130   -1.2900   -2.4070 H         1 ARA1        0.0000
     37 C15        11.3820   -2.0590   -3.3260 C.2       1 ARA1        0.0000
     38 H15R       11.9850   -2.7340   -3.9530 H         1 ARA1        0.0000
     39 C16         9.8940   -2.1390   -3.5650 C.3       1 ARA1        0.0000
     40 H16R        9.3880   -1.1730   -3.3390 H         1 ARA1        0.0000
     41 H16S        9.4430   -2.9100   -2.9020 H         1 ARA1        0.0000
     42 C17         9.5730   -2.5110   -5.0240 C.3       1 ARA1        0.0000
     43 H17R       10.0420   -3.4910   -5.2700 H         1 ARA1        0.0000
     44 H17S       10.0000   -1.7450   -5.7120 H         1 ARA1        0.0000
     45 C18         8.0620   -2.6170   -5.2770 C.3       1 ARA1        0.0000
     46 H18R        7.5930   -1.6250   -5.0940 H         1 ARA1        0.0000
     47 H18S        7.6230   -3.3380   -4.5500 H         1 ARA1        0.0000
     48 C19         7.7340   -3.0810   -6.7010 C.3       1 ARA1        0.0000
     49 H19R        8.2000   -4.0790   -6.8690 H         1 ARA1        0.0000
     50 H19S        8.1940   -2.3720   -7.4260 H         1 ARA1        0.0000
     51 C20         6.2310   -3.1770   -6.9740 C.3       1 ARA1        0.0000
     52 H20R        5.7480   -2.1880   -6.8230 H         1 ARA1        0.0000
     53 H20S        5.7590   -3.9070   -6.2820 H         1 ARA1        0.0000
     54 H20T        6.0440   -3.5070   -8.0180 H         1 ARA1        0.0000
@<TRIPOS>BOND
     1   54   51 1 
     2   50   48 1 
     3   51   52 1 
     4   51   48 1 
     5   51   53 1 
     6   49   48 1 
     7   48   45 1 
     8   44   42 1 
     9   45   46 1 
    10   45   42 1 
    11   45   47 1 
    12   43   42 1 
    13   42   39 1 
    14   38   37 1 
    15   39   40 1 
    16   39   37 1 
    17   39   41 1 
    18   37   35 2 
    19   35   36 1 
    20   35   32 1 
    21   33   32 1 
    22   34   32 1 
    23   32   30 1 
    24    6    5 1 
    25    7    5 1 
    26   30   31 1 
    27   30   28 2 
    28    5    4 1 
    29    5    8 1 
    30    2    1 1 
    31    2    4 1 
    32    4    3 2 
    33   26   25 1 
    34   12   11 1 
    35   13   11 1 
    36   28   25 1 
    37   28   29 1 
    38   25   27 1 
    39   25   23 1 
    40   11    8 1 
    41   11   14 1 
    42    8   10 1 
    43    8    9 1 
    44   19   18 1 
    45   23   24 1 
    46   23   21 2 
    47   14   15 1 
    48   14   16 2 
    49   18   21 1 
    50   18   16 1 
    51   18   20 1 
    52   21   22 1 
    53   16   17 1 
