@<TRIPOS>MOLECULE
C:\Users\Praveer\PycharmProjects\pdb_to_mol2_converter\data\pdb\aran.pdb
   53    52     0     0     0
SMALL
GASTEIGER

@<TRIPOS>ATOM
      1 O1         -0.0460    0.1130    0.0680 O.co2     1 ARA1        0.0000
      2 O2          1.8770   -1.0030   -0.0400 O.co2     1 ARA1        0.0000
      3 C1          1.2100    0.0630    0.0060 C.2       1 ARA1        0.0000
      4 C2          1.9750    1.3830    0.0050 C.3       1 ARA1        0.0000
      5 H2R         2.6400    1.3780    0.8920 H         1 ARA1        0.0000
      6 H2S         1.2420    2.2090    0.1040 H         1 ARA1        0.0000
      7 C3          2.8070    1.5610   -1.2850 C.3       1 ARA1        0.0000
      8 H3R         2.1170    1.5620   -2.1590 H         1 ARA1        0.0000
      9 H3S         3.4840    0.6810   -1.3870 H         1 ARA1        0.0000
     10 C4          3.6340    2.8580   -1.2640 C.3       1 ARA1        0.0000
     11 H4R         4.2900    2.8330   -0.3660 H         1 ARA1        0.0000
     12 H4S         2.9230    3.7030   -1.1250 H         1 ARA1        0.0000
     13 C5          4.4710    3.0040   -2.5120 C.2       1 ARA1        0.0000
     14 H5R         5.0430    2.1010   -2.7780 H         1 ARA1        0.0000
     15 C6          4.5470    4.0830   -3.3150 C.2       1 ARA1        0.0000
     16 H6R         5.1960    4.0240   -4.2030 H         1 ARA1        0.0000
     17 C7          3.8300    5.3980   -3.1140 C.3       1 ARA1        0.0000
     18 H7R         3.5230    5.5150   -2.0520 H         1 ARA1        0.0000
     19 H7S         2.8860    5.3740   -3.7030 H         1 ARA1        0.0000
     20 C8          4.6490    6.5850   -3.5660 C.2       1 ARA1        0.0000
     21 H8R         5.2160    6.4380   -4.4990 H         1 ARA1        0.0000
     22 C9          4.7420    7.7760   -2.9410 C.2       1 ARA1        0.0000
     23 H9R         5.3940    8.5480   -3.3810 H         1 ARA1        0.0000
     24 C10         4.0310    8.1790   -1.6690 C.3       1 ARA1        0.0000
     25 H10R        4.6960    7.9590   -0.8050 H         1 ARA1        0.0000
     26 H10S        3.1180    7.5620   -1.5140 H         1 ARA1        0.0000
     27 C11         3.6340    9.6350   -1.6500 C.2       1 ARA1        0.0000
     28 H11R        3.6400   10.1520   -2.6230 H         1 ARA1        0.0000
     29 C12         3.2810   10.3320   -0.5540 C.2       1 ARA1        0.0000
     30 H12R        3.0160   11.3940   -0.6750 H         1 ARA1        0.0000
     31 C13         3.1860    9.7810    0.8520 C.3       1 ARA1        0.0000
     32 H13R        4.2010    9.7840    1.3070 H         1 ARA1        0.0000
     33 H13S        2.8680    8.7150    0.8300 H         1 ARA1        0.0000
     34 C14         2.2690   10.6200    1.7120 C.2       1 ARA1        0.0000
     35 H14R        2.5130   11.6940    1.7230 H         1 ARA1        0.0000
     36 C15         1.2070   10.2110    2.4340 C.2       1 ARA1        0.0000
     37 H15R        0.6410   10.9670    2.9980 H         1 ARA1        0.0000
     38 C16         0.6880    8.8030    2.6000 C.3       1 ARA1        0.0000
     39 H16R        1.4290    8.0380    2.2770 H         1 ARA1        0.0000
     40 H16S       -0.2240    8.6600    1.9780 H         1 ARA1        0.0000
     41 C17         0.3170    8.5310    4.0700 C.3       1 ARA1        0.0000
     42 H17R       -0.4400    9.2750    4.4080 H         1 ARA1        0.0000
     43 H17S        1.2190    8.6500    4.7130 H         1 ARA1        0.0000
     44 C18        -0.2610    7.1260    4.2930 C.3       1 ARA1        0.0000
     45 H18R        0.5060    6.3660    4.0230 H         1 ARA1        0.0000
     46 H18S       -1.1340    6.9780    3.6180 H         1 ARA1        0.0000
     47 C19        -0.7110    6.9040    5.7440 C.3       1 ARA1        0.0000
     48 H19R       -1.4920    7.6580    5.9940 H         1 ARA1        0.0000
     49 H19S        0.1560    7.0840    6.4200 H         1 ARA1        0.0000
     50 C20        -1.2680    5.5010    6.0010 C.3       1 ARA1        0.0000
     51 H20R       -0.4880    4.7330    5.8120 H         1 ARA1        0.0000
     52 H20S       -2.1300    5.2940    5.3300 H         1 ARA1        0.0000
     53 H20T       -1.6110    5.4030    7.0530 H         1 ARA1        0.0000
@<TRIPOS>BOND
     1   21   20 1 
     2   16   15 1 
     3   19   17 1 
     4   20   17 1 
     5   20   22 2 
     6   23   22 1 
     7   15   17 1 
     8   15   13 2 
     9   17   18 1 
    10   22   24 1 
    11   14   13 1 
    12   28   27 1 
    13   13   10 1 
    14    8    7 1 
    15   24   27 1 
    16   24   26 1 
    17   24   25 1 
    18   27   29 2 
    19    9    7 1 
    20    7   10 1 
    21    7    4 1 
    22   10   12 1 
    23   10   11 1 
    24   30   29 1 
    25   29   31 1 
    26    2    3 ar
    27    4    3 1 
    28    4    6 1 
    29    4    5 1 
    30    3    1 ar
    31   33   31 1 
    32   31   32 1 
    33   31   34 1 
    34   34   35 1 
    35   34   36 2 
    36   40   38 1 
    37   39   38 1 
    38   36   38 1 
    39   36   37 1 
    40   38   41 1 
    41   46   44 1 
    42   45   44 1 
    43   41   44 1 
    44   41   42 1 
    45   41   43 1 
    46   44   47 1 
    47   52   50 1 
    48   47   48 1 
    49   47   50 1 
    50   47   49 1 
    51   51   50 1 
    52   50   53 1 
