@<TRIPOS>MOLECULE
C:\Users\Praveer\PycharmProjects\pdb_to_mol2_converter\data\pdb\arao.pdb
   15    15     0     0     0
SMALL
GASTEIGER

@<TRIPOS>ATOM
      1 O4'         1.3730    0.0400   -0.2430 O.3       1 ARA1        0.0000
      2 C1'         1.8470    1.3720    0.0160 C.3       1 ARA1        0.0000
      3 H11'        2.2440    1.7790   -0.9270 H         1 ARA1        0.0000
      4 H12'        2.6870    1.2970    0.7210 H         1 ARA1        0.0000
      5 C4'        -0.0370   -0.0190    0.0110 C.3       1 ARA1        0.0000
      6 H41'       -0.2930   -1.0220    0.3820 H         1 ARA1        0.0000
      7 H42'       -0.5520    0.1290   -0.9500 H         1 ARA1        0.0000
      8 C2'         0.6840    2.1930    0.5850 C.3       1 ARA1        0.0000
      9 H22'        0.9970    2.8110    1.4390 H         1 ARA1        0.0000
     10 O2'         0.1410    3.0430   -0.4310 O.3       1 ARA1        0.0000
     11 H21'       -0.1890    3.8580   -0.0420 H         1 ARA1        0.0000
     12 C3'        -0.3360    1.1140    0.9820 C.3       1 ARA1        0.0000
     13 H31'       -1.3750    1.4690    0.8960 H         1 ARA1        0.0000
     14 O3'        -0.1440    0.6640    2.3240 O.3       1 ARA1        0.0000
     15 H32'        0.6460    0.1120    2.3440 H         1 ARA1        0.0000
@<TRIPOS>BOND
     1    7    5 1 
     2    3    2 1 
     3   10   11 1 
     4   10    8 1 
     5    1    5 1 
     6    1    2 1 
     7    5    6 1 
     8    5   12 1 
     9    2    8 1 
    10    2    4 1 
    11    8   12 1 
    12    8    9 1 
    13   13   12 1 
    14   12   14 1 
    15   14   15 1 
