@<TRIPOS>MOLECULE
C:\Users\Praveer\PycharmProjects\pdb_to_mol2_converter\data\pdb\arap.pdb
   62    61     0     0     0
SMALL
GASTEIGER

@<TRIPOS>ATOM
      1 H1          0.0400   -0.1000   -0.1520 H         1 ARA1        0.0000
      2 O1          0.9900   -0.0850   -0.0480 O.3       1 ARA1        0.0000
      3 O2          0.5490    2.1180   -0.1200 O.2       1 ARA1        0.0000
      4 C1          1.3780    1.2330   -0.0190 C.2       1 ARA1        0.0000
      5 C2          2.8840    1.3960    0.1490 C.3       1 ARA1        0.0000
      6 H2R         3.3880    0.8890   -0.7000 H         1 ARA1        0.0000
      7 H2S         3.1860    0.8930    1.0920 H         1 ARA1        0.0000
      8 C3          3.3000    2.8820    0.1930 C.3       1 ARA1        0.0000
      9 H3R         2.7660    3.3950    1.0260 H         1 ARA1        0.0000
     10 H3S         3.0020    3.3850   -0.7550 H         1 ARA1        0.0000
     11 C4          4.8100    3.0590    0.3970 C.3       1 ARA1        0.0000
     12 H4R         5.3560    2.5660   -0.4380 H         1 ARA1        0.0000
     13 H4S         5.1110    2.5550    1.3430 H         1 ARA1        0.0000
     14 C5          5.2230    4.5350    0.4660 C.3       1 ARA1        0.0000
     15 H5R         4.6480    5.0340    1.2790 H         1 ARA1        0.0000
     16 H5S         4.9560    5.0360   -0.4920 H         1 ARA1        0.0000
     17 C6          6.7230    4.7220    0.7340 C.3       1 ARA1        0.0000
     18 H6R         7.3060    4.2400   -0.0820 H         1 ARA1        0.0000
     19 H6S         6.9860    4.2120    1.6870 H         1 ARA1        0.0000
     20 C7          7.1180    6.2020    0.8330 C.3       1 ARA1        0.0000
     21 H7R         6.5020    6.6870    1.6230 H         1 ARA1        0.0000
     22 H7S         6.8870    6.7070   -0.1320 H         1 ARA1        0.0000
     23 C8          8.6020    6.4040    1.1670 C.3       1 ARA1        0.0000
     24 H8R         9.2260    5.9340    0.3740 H         1 ARA1        0.0000
     25 H8S         8.8300    5.8900    2.1280 H         1 ARA1        0.0000
     26 C9          8.9730    7.8880    1.2920 C.3       1 ARA1        0.0000
     27 H9R         8.3220    8.3580    2.0640 H         1 ARA1        0.0000
     28 H9S         8.7710    8.3980    0.3240 H         1 ARA1        0.0000
     29 C10        10.4410    8.1070    1.6810 C.3       1 ARA1        0.0000
     30 H10R       11.0990    7.6510    0.9080 H         1 ARA1        0.0000
     31 H10S       10.6430    7.5900    2.6460 H         1 ARA1        0.0000
     32 C11        10.7870    9.5950    1.8280 C.3       1 ARA1        0.0000
     33 H11R       10.1090   10.0510    2.5850 H         1 ARA1        0.0000
     34 H11S       10.6040   10.1090    0.8580 H         1 ARA1        0.0000
     35 C12        12.2410    9.8330    2.2570 C.3       1 ARA1        0.0000
     36 H12R       12.9250    9.3890    1.4990 H         1 ARA1        0.0000
     37 H12S       12.4250    9.3140    3.2250 H         1 ARA1        0.0000
     38 C13        12.5650   11.3240    2.4180 C.3       1 ARA1        0.0000
     39 H13R       11.8680   11.7680    3.1650 H         1 ARA1        0.0000
     40 H13S       12.3930   11.8410    1.4470 H         1 ARA1        0.0000
     41 C14        14.0080   11.5760    2.8720 C.3       1 ARA1        0.0000
     42 H14R       14.7090   11.1390    2.1260 H         1 ARA1        0.0000
     43 H14S       14.1810   11.0580    3.8430 H         1 ARA1        0.0000
     44 C15        14.3170   13.0700    3.0390 C.3       1 ARA1        0.0000
     45 H15R       13.6100   13.5070    3.7800 H         1 ARA1        0.0000
     46 H15S       14.1500   13.5870    2.0670 H         1 ARA1        0.0000
     47 C16        15.7550   13.3310    3.5060 C.3       1 ARA1        0.0000
     48 H16R       16.4640   12.8950    2.7660 H         1 ARA1        0.0000
     49 H16S       15.9220   12.8140    4.4780 H         1 ARA1        0.0000
     50 C17        16.0590   14.8260    3.6730 C.3       1 ARA1        0.0000
     51 H17R       15.3480   15.2610    4.4120 H         1 ARA1        0.0000
     52 H17S       15.8940   15.3410    2.7010 H         1 ARA1        0.0000
     53 C18        17.4950   15.0890    4.1440 C.3       1 ARA1        0.0000
     54 H18R       18.2060   14.6540    3.4070 H         1 ARA1        0.0000
     55 H18S       17.6600   14.5750    5.1170 H         1 ARA1        0.0000
     56 C19        17.7990   16.5840    4.3100 C.3       1 ARA1        0.0000
     57 H19R       17.0810   17.0160    5.0440 H         1 ARA1        0.0000
     58 H19S       17.6260   17.0940    3.3350 H         1 ARA1        0.0000
     59 C20        19.2280   16.8640    4.7790 C.3       1 ARA1        0.0000
     60 H20R       19.9630   16.4620    4.0480 H         1 ARA1        0.0000
     61 H20S       19.4150   16.3840    5.7640 H         1 ARA1        0.0000
     62 H20T       19.3980   17.9580    4.8830 H         1 ARA1        0.0000
@<TRIPOS>BOND
     1   10    8 1 
     2    6    5 1 
     3   16   14 1 
     4   12   11 1 
     5    1    2 1 
     6   22   20 1 
     7    3    4 2 
     8   18   17 1 
     9    2    4 1 
    10    4    5 1 
    11    5    8 1 
    12    5    7 1 
    13    8   11 1 
    14    8    9 1 
    15   28   26 1 
    16   24   23 1 
    17   11   14 1 
    18   11   13 1 
    19   14   17 1 
    20   14   15 1 
    21   17   20 1 
    22   17   19 1 
    23   20   23 1 
    24   20   21 1 
    25   34   32 1 
    26   30   29 1 
    27   23   26 1 
    28   23   25 1 
    29   26   29 1 
    30   26   27 1 
    31   40   38 1 
    32   36   35 1 
    33   29   32 1 
    34   29   31 1 
    35   32   35 1 
    36   32   33 1 
    37   46   44 1 
    38   42   41 1 
    39   35   38 1 
    40   35   37 1 
    41   38   41 1 
    42   38   39 1 
    43   52   50 1 
    44   48   47 1 
    45   41   44 1 
    46   41   43 1 
    47   44   47 1 
    48   44   45 1 
    49   58   56 1 
    50   54   53 1 
    51   47   50 1 
    52   47   49 1 
    53   50   53 1 
    54   50   51 1 
    55   60   59 1 
    56   53   56 1 
    57   53   55 1 
    58   56   59 1 
    59   56   57 1 
    60   59   62 1 
    61   59   61 1 
