@<TRIPOS>MOLECULE
C:\Users\Praveer\PycharmProjects\pdb_to_mol2_converter\data\pdb\arhm.pdb
   23    23     0     0     0
SMALL
GASTEIGER

@<TRIPOS>ATOM
      1 C1          1.3720   -0.0710    0.0140 C.3       1 ARH1        0.0000
      2 H1          1.6700   -0.5800    0.9610 H         1 ARH1        0.0000
      3 O1          1.9680   -0.7560   -1.0510 O.3       1 ARH1        0.0000
      4 HO1         1.7220   -1.6830   -0.9650 H         1 ARH1        0.0000
      5 C5         -0.5770    0.6200   -1.1900 C.3       1 ARH1        0.0000
      6 H5         -0.2430    0.1220   -2.1270 H         1 ARH1        0.0000
      7 O5         -0.0560   -0.0920   -0.0570 O.3       1 ARH1        0.0000
      8 C2          1.9050    1.3530    0.0590 C.3       1 ARH1        0.0000
      9 H2          3.0180    1.3120    0.0150 H         1 ARH1        0.0000
     10 O2          1.5640    2.0200    1.2790 O.3       1 ARH1        0.0000
     11 HO2         1.7490    2.9560    1.1430 H         1 ARH1        0.0000
     12 C3          1.4090    2.1330   -1.1420 C.3       1 ARH1        0.0000
     13 H3          1.8160    1.6440   -2.0600 H         1 ARH1        0.0000
     14 O3          1.8920    3.4850   -1.1230 O.3       1 ARH1        0.0000
     15 HO3         1.9460    3.8000   -2.0290 H         1 ARH1        0.0000
     16 C4         -0.1030    2.0710   -1.2060 C.3       1 ARH1        0.0000
     17 H4         -0.5220    2.5670   -0.2990 H         1 ARH1        0.0000
     18 O4         -0.6050    2.7460   -2.3610 O.3       1 ARH1        0.0000
     19 HO4        -0.8750    3.6370   -2.1120 H         1 ARH1        0.0000
     20 C6         -2.1080    0.4840   -1.0880 C.3       1 ARH1        0.0000
     21 H61        -2.3990   -0.5870   -1.1020 H         1 ARH1        0.0000
     22 H62        -2.6050    1.0000   -1.9370 H         1 ARH1        0.0000
     23 H63        -2.4680    0.9330   -0.1370 H         1 ARH1        0.0000
@<TRIPOS>BOND
     1   18   19 1 
     2   18   16 1 
     3    6    5 1 
     4   13   12 1 
     5   15   14 1 
     6   22   20 1 
     7   16    5 1 
     8   16   12 1 
     9   16   17 1 
    10    5   20 1 
    11    5    7 1 
    12   12   14 1 
    13   12    8 1 
    14   21   20 1 
    15   20   23 1 
    16    3    4 1 
    17    3    1 1 
    18    7    1 1 
    19    1    8 1 
    20    1    2 1 
    21    9    8 1 
    22    8   10 1 
    23   11   10 1 
