@<TRIPOS>MOLECULE
C:\Users\Praveer\PycharmProjects\pdb_to_mol2_converter\data\pdb\arhmna.pdb
   29    29     0     0     0
SMALL
GASTEIGER

@<TRIPOS>ATOM
      1 C1          1.4770   -0.0400   -0.0810 C.3       1 ARH1        0.0000
      2 H1          1.8740   -0.5720    0.8160 H         1 ARH1        0.0000
      3 O1          1.9510   -0.7010   -1.2180 O.3       1 ARH1        0.0000
      4 HO1         1.6830   -1.6200   -1.1480 H         1 ARH1        0.0000
      5 C5         -0.5710    0.6790   -1.0850 C.3       1 ARH1        0.0000
      6 H5         -0.3220    0.1600   -2.0410 H         1 ARH1        0.0000
      7 O5          0.0520   -0.0070    0.0150 O.3       1 ARH1        0.0000
      8 C2          1.9880    1.3870   -0.0520 C.3       1 ARH1        0.0000
      9 H2          3.1010    1.3350   -0.1820 H         1 ARH1        0.0000
     10 N           1.7210    2.0060    1.2430 N.am      1 ARH1        0.0000
     11 HN          0.9640    1.6280    1.7670 H         1 ARH1        0.0000
     12 C           2.4260    3.0280    1.7400 C.2       1 ARH1        0.0000
     13 O           3.3200    3.5670    1.1020 O.2       1 ARH1        0.0000
     14 CT          2.0590    3.4950    3.1230 C.3       1 ARH1        0.0000
     15 HT1         2.1480    2.6550    3.8430 H         1 ARH1        0.0000
     16 HT2         1.0220    3.8870    3.1290 H         1 ARH1        0.0000
     17 HT3         2.7550    4.3060    3.4280 H         1 ARH1        0.0000
     18 C3          1.4200    2.1470   -1.2340 C.3       1 ARH1        0.0000
     19 H3          1.7380    1.6380   -2.1770 H         1 ARH1        0.0000
     20 O3          1.9320    3.4760   -1.3050 O.3       1 ARH1        0.0000
     21 HO3         2.4910    3.6430   -0.5250 H         1 ARH1        0.0000
     22 C4         -0.0910    2.1230   -1.1760 C.3       1 ARH1        0.0000
     23 H4         -0.4340    2.6660   -0.2650 H         1 ARH1        0.0000
     24 O4         -0.6540    2.7770   -2.3070 O.3       1 ARH1        0.0000
     25 HO4        -0.0940    3.5450   -2.4820 H         1 ARH1        0.0000
     26 C6         -2.0890    0.5520   -0.8650 C.3       1 ARH1        0.0000
     27 H61        -2.3820   -0.5190   -0.8280 H         1 ARH1        0.0000
     28 H62        -2.6390    1.0430   -1.6960 H         1 ARH1        0.0000
     29 H63        -2.3820    1.0340    0.0890 H         1 ARH1        0.0000
@<TRIPOS>BOND
     1   25   24 1 
     2   24   22 1 
     3   19   18 1 
     4    6    5 1 
     5   28   26 1 
     6   20   18 1 
     7   20   21 1 
     8   18   22 1 
     9   18    8 1 
    10    3    4 1 
    11    3    1 1 
    12   22    5 1 
    13   22   23 1 
    14    5   26 1 
    15    5    7 1 
    16   26   27 1 
    17   26   29 1 
    18    9    8 1 
    19    1    8 1 
    20    1    7 1 
    21    1    2 1 
    22    8   10 1 
    23   13   12 2 
    24   10   12 am
    25   10   11 1 
    26   12   14 1 
    27   14   16 1 
    28   14   17 1 
    29   14   15 1 
