@<TRIPOS>MOLECULE
C:\Users\Praveer\PycharmProjects\pdb_to_mol2_converter\data\pdb\arhmoa.pdb
   28    28     0     0     0
SMALL
GASTEIGER

@<TRIPOS>ATOM
      1 C1          1.4160    0.0000   -0.0010 C.3       1 ARH1        0.0000
      2 H1          1.7670   -0.4660    0.9500 H         1 ARH1        0.0000
      3 O1          1.9580   -0.7340   -1.0630 O.3       1 ARH1        0.0000
      4 HO1         1.6980   -1.6500   -0.9340 H         1 ARH1        0.0000
      5 C5         -0.5890    0.6350   -1.1300 C.3       1 ARH1        0.0000
      6 H5         -0.2870    0.1010   -2.0620 H         1 ARH1        0.0000
      7 O5         -0.0110   -0.0170    0.0100 O.3       1 ARH1        0.0000
      8 C2          1.9440    1.4270   -0.0420 C.3       1 ARH1        0.0000
      9 H2          3.0560    1.3580   -0.1370 H         1 ARH1        0.0000
     10 O2          1.5850    2.0890    1.1830 O.3       1 ARH1        0.0000
     11 CA2         2.3780    3.0870    1.5360 C.2       1 ARH1        0.0000
     12 OA2         3.3180    3.5100    0.8880 O.2       1 ARH1        0.0000
     13 CB2         1.8030    3.7630    2.7530 C.3       1 ARH1        0.0000
     14 HB1         1.7840    3.0500    3.6020 H         1 ARH1        0.0000
     15 HB2         0.7710    4.1080    2.5340 H         1 ARH1        0.0000
     16 HB3         2.4360    4.6360    3.0150 H         1 ARH1        0.0000
     17 C3          1.3880    2.1410   -1.2610 C.3       1 ARH1        0.0000
     18 H3          1.7350    1.6010   -2.1750 H         1 ARH1        0.0000
     19 O3          1.8520    3.4890   -1.3750 O.3       1 ARH1        0.0000
     20 HO3         2.5800    3.6450   -0.7450 H         1 ARH1        0.0000
     21 C4         -0.1250    2.0830   -1.2240 C.3       1 ARH1        0.0000
     22 H4         -0.4860    2.6230   -0.3170 H         1 ARH1        0.0000
     23 O4         -0.6850    2.7180   -2.3680 O.3       1 ARH1        0.0000
     24 HO4        -0.1610    3.5160   -2.5180 H         1 ARH1        0.0000
     25 C6         -2.1140    0.4910   -0.9740 C.3       1 ARH1        0.0000
     26 H61        -2.3940   -0.5810   -0.9170 H         1 ARH1        0.0000
     27 H62        -2.6350    0.9520   -1.8390 H         1 ARH1        0.0000
     28 H63        -2.4520    0.9960   -0.0450 H         1 ARH1        0.0000
@<TRIPOS>BOND
     1   24   23 1 
     2   23   21 1 
     3   18   17 1 
     4    6    5 1 
     5   27   25 1 
     6   19   17 1 
     7   19   20 1 
     8   17   21 1 
     9   17    8 1 
    10   21    5 1 
    11   21   22 1 
    12    5   25 1 
    13    5    7 1 
    14    3    4 1 
    15    3    1 1 
    16   25   26 1 
    17   25   28 1 
    18    9    8 1 
    19    8    1 1 
    20    8   10 1 
    21    1    7 1 
    22    1    2 1 
    23   12   11 2 
    24   10   11 1 
    25   11   13 1 
    26   15   13 1 
    27   13   16 1 
    28   13   14 1 
