@<TRIPOS>MOLECULE
C:\Users\Praveer\PycharmProjects\pdb_to_mol2_converter\data\pdb\arib.pdb
   20    20     0     0     0
SMALL
GASTEIGER

@<TRIPOS>ATOM
      1 O4          1.4040   -0.0400   -0.0440 O.3       1 ARI1        0.0000
      2 C1          1.8720    1.3030   -0.0060 C.3       1 ARI1        0.0000
      3 H1          2.9240    1.3100   -0.3640 H         1 ARI1        0.0000
      4 O1          1.8320    1.8540    1.2780 O.3       1 ARI1        0.0000
      5 HO1         1.6760    2.7950    1.1430 H         1 ARI1        0.0000
      6 C4         -0.0230    0.0270    0.0070 C.3       1 ARI1        0.0000
      7 H4         -0.2920    0.2820    1.0580 H         1 ARI1        0.0000
      8 C5         -0.6010   -1.3070   -0.3750 C.3       1 ARI1        0.0000
      9 H51        -0.2150   -2.1010    0.3040 H         1 ARI1        0.0000
     10 H52        -0.2900   -1.5690   -1.4120 H         1 ARI1        0.0000
     11 O5         -2.0290   -1.2720   -0.3080 O.3       1 ARI1        0.0000
     12 HO5        -2.3260   -1.4400    0.5940 H         1 ARI1        0.0000
     13 C2          0.9360    2.0130   -1.0160 C.3       1 ARI1        0.0000
     14 H2          1.3770    1.9090   -2.0310 H         1 ARI1        0.0000
     15 O2          0.7320    3.3920   -0.7660 O.3       1 ARI1        0.0000
     16 HO2        -0.2110    3.4710   -0.5470 H         1 ARI1        0.0000
     17 C3         -0.3710    1.1630   -0.9580 C.3       1 ARI1        0.0000
     18 H3         -0.5800    0.7610   -1.9730 H         1 ARI1        0.0000
     19 O3         -1.5100    1.8620   -0.5010 O.3       1 ARI1        0.0000
     20 HO3        -2.2660    1.2630   -0.5570 H         1 ARI1        0.0000
@<TRIPOS>BOND
     1   14   13 1 
     2   18   17 1 
     3   10    8 1 
     4   13   17 1 
     5   13   15 1 
     6   13    2 1 
     7   17   19 1 
     8   17    6 1 
     9   15   16 1 
    10   20   19 1 
    11    8   11 1 
    12    8    6 1 
    13    8    9 1 
    14    3    2 1 
    15   11   12 1 
    16    1    2 1 
    17    1    6 1 
    18    2    4 1 
    19    6    7 1 
    20    5    4 1 
