@<TRIPOS>MOLECULE
C:\Users\Praveer\PycharmProjects\pdb_to_mol2_converter\data\pdb\aribp.pdb
   20    20     0     0     0
SMALL
GASTEIGER

@<TRIPOS>ATOM
      1 C1          1.4840   -0.0200    0.0410 C.3       1 ARI1        0.0000
      2 H1          1.8190   -0.6430   -0.8200 H         1 ARI1        0.0000
      3 O1          1.9740   -0.6380    1.1980 O.3       1 ARI1        0.0000
      4 HO1         1.8980    0.0270    1.8980 H         1 ARI1        0.0000
      5 C5         -0.5110    0.9080    0.9740 C.3       1 ARI1        0.0000
      6 H51        -0.3020    0.4940    1.9860 H         1 ARI1        0.0000
      7 H52        -1.6160    0.9160    0.8450 H         1 ARI1        0.0000
      8 O5          0.0540    0.0540   -0.0300 O.3       1 ARI1        0.0000
      9 C2          2.1140    1.3660   -0.0850 C.3       1 ARI1        0.0000
     10 H2          3.2140    1.2770    0.0920 H         1 ARI1        0.0000
     11 O2          1.9500    1.9280   -1.3910 O.3       1 ARI1        0.0000
     12 HO2         2.7270    1.7580   -1.9340 H         1 ARI1        0.0000
     13 C3          1.5400    2.3110    0.9490 C.3       1 ARI1        0.0000
     14 H3          1.9130    3.3440    0.7400 H         1 ARI1        0.0000
     15 O3          1.9740    1.9700    2.2650 O.3       1 ARI1        0.0000
     16 HO3         1.4480    2.5120    2.8700 H         1 ARI1        0.0000
     17 C4          0.0270    2.3200    0.8530 C.3       1 ARI1        0.0000
     18 H4         -0.2570    2.7160   -0.1530 H         1 ARI1        0.0000
     19 O4         -0.5640    3.1500    1.8500 O.3       1 ARI1        0.0000
     20 HO4        -1.2730    3.6740    1.4620 H         1 ARI1        0.0000
@<TRIPOS>BOND
     1   12   11 1 
     2   11    9 1 
     3    2    1 1 
     4   18   17 1 
     5    9    1 1 
     6    9   10 1 
     7    9   13 1 
     8    8    1 1 
     9    8    5 1 
    10    1    3 1 
    11   14   13 1 
    12    7    5 1 
    13   17   13 1 
    14   17    5 1 
    15   17   19 1 
    16   13   15 1 
    17    5    6 1 
    18    3    4 1 
    19   20   19 1 
    20   15   16 1 
