@<TRIPOS>MOLECULE
C:\Users\Praveer\PycharmProjects\pdb_to_mol2_converter\data\pdb\arim.pdb
   21    22     0     0     0
SMALL
GASTEIGER

@<TRIPOS>ATOM
      1 O4'        -0.0840    1.3820   -0.7380 O.3       1 ARI1        0.0000
      2 C1'         0.2450    0.0650   -0.2610 C.3       1 ARI1        0.0000
      3 H12'       -0.3050   -0.0610    0.6850 H         1 ARI1        0.0000
      4 C4'         1.0900    2.1970   -0.7890 C.3       1 ARI1        0.0000
      5 H41'        0.8180    3.2300   -0.5320 H         1 ARI1        0.0000
      6 H42'        1.4520    2.1860   -1.8290 H         1 ARI1        0.0000
      7 C3'         2.0850    1.5490    0.1720 C.3       1 ARI1        0.0000
      8 H31'        1.8900    1.8840    1.2040 H         1 ARI1        0.0000
      9 H32'        3.1290    1.8150   -0.0470 H         1 ARI1        0.0000
     10 C2'         1.7760    0.0660    0.0400 C.3       1 ARI1        0.0000
     11 H22'        2.0050   -0.4850    0.9650 H         1 ARI1        0.0000
     12 O2'         2.6030   -0.4610   -0.9950 O.3       1 ARI1        0.0000
     13 H21'        2.3640   -0.0390   -1.8250 H         1 ARI1        0.0000
     14 CG         -0.6120   -0.7160   -2.5520 C.ar      1 ARI1        0.0000
     15 HG         -0.6650    0.2720   -2.9870 H         1 ARI1        0.0000
     16 CD2        -0.9210   -1.9330   -3.0770 C.ar      1 ARI1        0.0000
     17 HD2        -1.2880   -2.1860   -4.0640 H         1 ARI1        0.0000
     18 ND1        -0.1980   -0.9490   -1.2560 N.ar      1 ARI1        0.0000
     19 CE1        -0.2790   -2.3040   -1.0690 C.ar      1 ARI1        0.0000
     20 HE1         0.0030   -2.7840   -0.1310 H         1 ARI1        0.0000
     21 NE2        -0.7130   -2.9360   -2.1440 N.ar      1 ARI1        0.0000
@<TRIPOS>BOND
     1   17   16 1 
     2   16   14 ar
     3   16   21 ar
     4   15   14 1 
     5   14   18 ar
     6   21   19 ar
     7    6    4 1 
     8   13   12 1 
     9   18   19 ar
    10   18    2 1 
    11   19   20 1 
    12   12   10 1 
    13    4    1 1 
    14    4    5 1 
    15    4    7 1 
    16    1    2 1 
    17    2   10 1 
    18    2    3 1 
    19    9    7 1 
    20   10    7 1 
    21   10   11 1 
    22    7    8 1 
