@<TRIPOS>MOLECULE
C:\Users\Praveer\PycharmProjects\pdb_to_mol2_converter\data\pdb\armo.pdb
   18    18     0     0     0
SMALL
GASTEIGER

@<TRIPOS>ATOM
      1 O4'        -0.1760    1.5980   -0.3890 O.3       1 ARM1        0.0000
      2 C1'         0.0180    0.2090   -0.0770 C.3       1 ARM1        0.0000
      3 H11'       -0.4490   -0.3830   -0.8790 H         1 ARM1        0.0000
      4 H12'       -0.5310   -0.0080    0.8500 H         1 ARM1        0.0000
      5 C4'         1.0800    2.1980   -0.7180 C.3       1 ARM1        0.0000
      6 H42'        1.0560    3.2450   -0.3720 H         1 ARM1        0.0000
      7 C2'         1.5220   -0.0530    0.0590 C.3       1 ARM1        0.0000
      8 H22'        1.7560   -0.5930    0.9890 H         1 ARM1        0.0000
      9 O2'         1.9990   -0.8240   -1.0500 O.3       1 ARM1        0.0000
     10 H21'        2.7890   -1.3120   -0.7980 H         1 ARM1        0.0000
     11 C3'         2.1230    1.3650    0.0400 C.3       1 ARM1        0.0000
     12 H31'        3.1030    1.3960   -0.4590 H         1 ARM1        0.0000
     13 O3'         2.3010    1.8690    1.3690 O.3       1 ARM1        0.0000
     14 H32'        1.4340    2.0720    1.7350 H         1 ARM1        0.0000
     15 C5'         1.2230    2.1900   -2.2430 C.3       1 ARM1        0.0000
     16 H51'        0.3960    2.7680   -2.7060 H         1 ARM1        0.0000
     17 H52'        1.1800    1.1510   -2.6340 H         1 ARM1        0.0000
     18 H53'        2.1900    2.6440   -2.5460 H         1 ARM1        0.0000
@<TRIPOS>BOND
     1   16   15 1 
     2   17   15 1 
     3   18   15 1 
     4   15    5 1 
     5    9   10 1 
     6    9    7 1 
     7    3    2 1 
     8    5    1 1 
     9    5    6 1 
    10    5   11 1 
    11   12   11 1 
    12    1    2 1 
    13    2    7 1 
    14    2    4 1 
    15   11    7 1 
    16   11   13 1 
    17    7    8 1 
    18   13   14 1 
