@<TRIPOS>MOLECULE
C:\Users\Praveer\PycharmProjects\pdb_to_mol2_converter\data\pdb\asm.pdb
  139   138     0     0     0
SMALL
GASTEIGER

@<TRIPOS>ATOM
      1 N          21.4510    4.8090    6.7200 N.4       1 ASM1        0.0000
      2 C15        22.5110    5.7870    7.1200 C.3       1 ASM1        0.0000
      3 H15A       22.4150    6.6910    6.5270 H         1 ASM1        0.0000
      4 H15B       23.4990    5.3800    6.9530 H         1 ASM1        0.0000
      5 H15C       22.4160    6.0620    8.1620 H         1 ASM1        0.0000
      6 C14        21.6120    4.4590    5.2670 C.3       1 ASM1        0.0000
      7 H14A       22.5680    4.0250    5.0360 H         1 ASM1        0.0000
      8 H14B       21.4480    5.3340    4.6340 H         1 ASM1        0.0000
      9 H14C       20.8170    3.7780    4.9540 H         1 ASM1        0.0000
     10 C13        21.5780    3.5450    7.5160 C.3       1 ASM1        0.0000
     11 H13A       21.4580    3.7300    8.5740 H         1 ASM1        0.0000
     12 H13B       22.5440    3.0830    7.3530 H         1 ASM1        0.0000
     13 H13C       20.8170    2.8340    7.2050 H         1 ASM1        0.0000
     14 C12        20.0650    5.4030    6.9210 C.3       1 ASM1        0.0000
     15 H12A       19.8390    5.5370    7.9680 H         1 ASM1        0.0000
     16 H12B       19.3290    4.6830    6.5430 H         1 ASM1        0.0000
     17 C11        19.7500    6.7160    6.1730 C.3       1 ASM1        0.0000
     18 H11A       20.5760    7.0400    5.5000 H         1 ASM1        0.0000
     19 H11B       19.6110    7.5310    6.9180 H         1 ASM1        0.0000
     20 P          18.5410    5.5390    4.2190 P.3       1 ASM1        0.0000
     21 O13        19.7020    5.8930    3.3680 O.2       1 ASM1        0.0000
     22 O14        18.5240    4.1680    4.7750 O.3       1 ASM1        0.0000
     23 O11        17.2020    5.8720    3.4500 O.3       1 ASM1        0.0000
     24 O12        18.5360    6.5480    5.4430 O.3       1 ASM1        0.0000
     25 C1S        16.8930    7.1990    3.0060 C.3       1 ASM1        0.0000
     26 H1S        17.4590    7.9820    3.5640 H         1 ASM1        0.0000
     27 H1T        15.8150    7.3730    3.2090 H         1 ASM1        0.0000
     28 NF         18.5500    7.1540    1.2060 N.am      1 ASM1        0.0000
     29 HNF        19.0870    6.8340    1.9990 H         1 ASM1        0.0000
     30 C2S        17.1510    7.3980    1.4730 C.3       1 ASM1        0.0000
     31 H2S        16.5920    6.5830    0.9550 H         1 ASM1        0.0000
     32 C3S        16.5870    8.7500    0.9450 C.3       1 ASM1        0.0000
     33 H3S        16.9000    8.9280   -0.1040 H         1 ASM1        0.0000
     34 O3         17.0680    9.8590    1.7040 O.3       1 ASM1        0.0000
     35 HO3        17.8450    9.5220    2.1570 H         1 ASM1        0.0000
     36 C4S        15.0870    8.7590    1.0220 C.2       1 ASM1        0.0000
     37 H4S        14.6680    9.0700    1.9880 H         1 ASM1        0.0000
     38 C5S        14.2700    8.4530   -0.0030 C.2       1 ASM1        0.0000
     39 H5S        14.7080    8.1650   -0.9740 H         1 ASM1        0.0000
     40 C6S        12.7640    8.4570    0.0580 C.3       1 ASM1        0.0000
     41 H6S        12.3530    9.0290   -0.8040 H         1 ASM1        0.0000
     42 H6T        12.3930    8.9540    0.9830 H         1 ASM1        0.0000
     43 C7S        12.1980    7.0260    0.0180 C.3       1 ASM1        0.0000
     44 H7S        12.5650    6.4560    0.9010 H         1 ASM1        0.0000
     45 H7T        12.5570    6.5010   -0.8960 H         1 ASM1        0.0000
     46 C8S        10.6630    7.0080    0.0220 C.3       1 ASM1        0.0000
     47 H8S        10.2920    7.5600   -0.8710 H         1 ASM1        0.0000
     48 H8T        10.2950    7.5410    0.9270 H         1 ASM1        0.0000
     49 C9S        10.0820    5.5870    0.0080 C.3       1 ASM1        0.0000
     50 H9S        10.4470    5.0360    0.9040 H         1 ASM1        0.0000
     51 H9T        10.4510    5.0490   -0.8930 H         1 ASM1        0.0000
     52 C10S        8.5470    5.5860    0.0040 C.3       1 ASM1        0.0000
     53 H10S        8.1870    6.1350   -0.8940 H         1 ASM1        0.0000
     54 H10T        8.1830    6.1320    0.9040 H         1 ASM1        0.0000
     55 C11S        7.9480    4.1730    0.0010 C.3       1 ASM1        0.0000
     56 H11S        8.3080    3.6220    0.8990 H         1 ASM1        0.0000
     57 H11T        8.3090    3.6250   -0.8990 H         1 ASM1        0.0000
     58 C12S        6.4130    4.1880    0.0000 C.3       1 ASM1        0.0000
     59 H12S        6.0550    4.7390   -0.8980 H         1 ASM1        0.0000
     60 H12T        6.0550    4.7380    0.8990 H         1 ASM1        0.0000
     61 C13S        5.8050    2.7790   -0.0000 C.3       1 ASM1        0.0000
     62 H13S        6.1620    2.2280    0.8990 H         1 ASM1        0.0000
     63 H13T        6.1620    2.2280   -0.8990 H         1 ASM1        0.0000
     64 C14S        4.2700    2.7970   -0.0000 C.3       1 ASM1        0.0000
     65 H14S        3.9120    3.3480   -0.8990 H         1 ASM1        0.0000
     66 H14T        3.9120    3.3480    0.8980 H         1 ASM1        0.0000
     67 C15S        3.6620    1.3880   -0.0000 C.3       1 ASM1        0.0000
     68 H15S        4.0190    0.8370    0.8990 H         1 ASM1        0.0000
     69 H15T        4.0190    0.8370   -0.8990 H         1 ASM1        0.0000
     70 C16S        2.1260    1.4040   -0.0010 C.3       1 ASM1        0.0000
     71 H16S        1.7680    1.9540   -0.8990 H         1 ASM1        0.0000
     72 H16T        1.7670    1.9540    0.8980 H         1 ASM1        0.0000
     73 C17S        1.5190   -0.0050   -0.0010 C.3       1 ASM1        0.0000
     74 H17S        1.8850   -0.5530    0.8970 H         1 ASM1        0.0000
     75 H17T        1.8860   -0.5530   -0.8990 H         1 ASM1        0.0000
     76 C18S       -0.0120   -0.0070   -0.0010 C.3       1 ASM1        0.0000
     77 H18S       -0.4010    0.5140   -0.9030 H         1 ASM1        0.0000
     78 H18T       -0.4020    0.5140    0.9000 H         1 ASM1        0.0000
     79 H18U       -0.4020   -1.0470   -0.0020 H         1 ASM1        0.0000
     80 C1F        19.0060    6.9270   -0.0210 C.2       1 ASM1        0.0000
     81 OF         18.2810    7.0380   -1.0030 O.2       1 ASM1        0.0000
     82 C2F        20.4110    6.4200   -0.1190 C.3       1 ASM1        0.0000
     83 H2F        20.3760    5.3080   -0.1200 H         1 ASM1        0.0000
     84 H2G        20.9800    6.7490    0.7780 H         1 ASM1        0.0000
     85 C3F        21.1270    6.9080   -1.3940 C.3       1 ASM1        0.0000
     86 H3F        21.1800    8.0190   -1.3940 H         1 ASM1        0.0000
     87 H3G        20.5420    6.5990   -2.2910 H         1 ASM1        0.0000
     88 C4F        22.5440    6.3300   -1.5030 C.3       1 ASM1        0.0000
     89 H4F        22.4770    5.2190   -1.4800 H         1 ASM1        0.0000
     90 H4G        23.1420    6.6520   -0.6210 H         1 ASM1        0.0000
     91 C5F        23.2690    6.7540   -2.7850 C.3       1 ASM1        0.0000
     92 H5F        23.3850    7.8610   -2.7990 H         1 ASM1        0.0000
     93 H5G        22.6460    6.4670   -3.6630 H         1 ASM1        0.0000
     94 C6F        24.6450    6.0910   -2.9100 C.3       1 ASM1        0.0000
     95 H6F        24.5170    4.9860   -2.8590 H         1 ASM1        0.0000
     96 H6G        25.2800    6.3970   -2.0490 H         1 ASM1        0.0000
     97 C7F        25.3620    6.4440   -4.2180 C.3       1 ASM1        0.0000
     98 H7F        25.5200    7.5450   -4.2670 H         1 ASM1        0.0000
     99 H7G        24.7150    6.1560   -5.0770 H         1 ASM1        0.0000
    100 C8F        26.7130    5.7310   -4.3460 C.3       1 ASM1        0.0000
    101 H8F        26.5510    4.6310   -4.2750 H         1 ASM1        0.0000
    102 H8G        27.3670    6.0310   -3.4970 H         1 ASM1        0.0000
    103 C9F        27.4260    6.0440   -5.6670 C.3       1 ASM1        0.0000
    104 H9F        27.5850    7.1430   -5.7470 H         1 ASM1        0.0000
    105 H9G        26.7760    5.7320   -6.5150 H         1 ASM1        0.0000
    106 C10F       28.7790    5.3290   -5.7810 C.3       1 ASM1        0.0000
    107 H10F       28.6210    4.2320   -5.6750 H         1 ASM1        0.0000
    108 H10G       29.4370    5.6580   -4.9450 H         1 ASM1        0.0000
    109 C11F       29.4800    5.6070   -7.1160 C.3       1 ASM1        0.0000
    110 H11F       29.6290    6.7040   -7.2320 H         1 ASM1        0.0000
    111 H11G       28.8250    5.2640   -7.9480 H         1 ASM1        0.0000
    112 C12F       30.8370    4.9000   -7.2220 C.3       1 ASM1        0.0000
    113 H12F       30.6910    3.8070   -7.0690 H         1 ASM1        0.0000
    114 H12G       31.5060    5.2680   -6.4120 H         1 ASM1        0.0000
    115 C13F       31.5130    5.1270   -8.5800 C.3       1 ASM1        0.0000
    116 H13F       31.6640    6.2190   -8.7370 H         1 ASM1        0.0000
    117 H13G       30.8380    4.7600   -9.3860 H         1 ASM1        0.0000
    118 C14F       32.8630    4.4080   -8.6900 C.3       1 ASM1        0.0000
    119 H14F       32.7100    3.3200   -8.5100 H         1 ASM1        0.0000
    120 H14G       33.5460    4.7890   -7.8990 H         1 ASM1        0.0000
    121 C15F       33.5210    4.5990  -10.0620 C.3       1 ASM1        0.0000
    122 H15F       33.6900    5.6850  -10.2390 H         1 ASM1        0.0000
    123 H15G       32.8290    4.2300  -10.8520 H         1 ASM1        0.0000
    124 C16F       34.8570    3.8530  -10.1800 C.3       1 ASM1        0.0000
    125 H16F       34.6840    2.7690   -9.9970 H         1 ASM1        0.0000
    126 H16G       35.5520    4.2220   -9.3930 H         1 ASM1        0.0000
    127 C17F       35.5120    4.0320  -11.5550 C.3       1 ASM1        0.0000
    128 H17F       35.7040    5.1140  -11.7290 H         1 ASM1        0.0000
    129 H17G       34.8070    3.6820  -12.3430 H         1 ASM1        0.0000
    130 C18F       36.8300    3.2580  -11.6830 C.3       1 ASM1        0.0000
    131 H18F       36.6340    2.1740  -11.5220 H         1 ASM1        0.0000
    132 H18G       37.5310    3.5950  -10.8870 H         1 ASM1        0.0000
    133 C19F       37.4970    3.4490  -13.0510 C.3       1 ASM1        0.0000
    134 H19F       37.6960    4.5340  -13.2030 H         1 ASM1        0.0000
    135 H19G       36.7860    3.1260  -13.8450 H         1 ASM1        0.0000
    136 C20F       38.8060    2.6700  -13.2000 C.3       1 ASM1        0.0000
    137 H20F       38.6250    1.5800  -13.0840 H         1 ASM1        0.0000
    138 H20G       39.5380    2.9870  -12.4260 H         1 ASM1        0.0000
    139 H20H       39.2550    2.8480  -14.2010 H         1 ASM1        0.0000
@<TRIPOS>BOND
     1  139  136 1 
     2  135  133 1 
     3  134  133 1 
     4  136  137 1 
     5  136  133 1 
     6  136  138 1 
     7  133  130 1 
     8  129  127 1 
     9  128  127 1 
    10  130  127 1 
    11  130  131 1 
    12  130  132 1 
    13  127  124 1 
    14  123  121 1 
    15  122  121 1 
    16  124  121 1 
    17  124  125 1 
    18  124  126 1 
    19  121  118 1 
    20  117  115 1 
    21  116  115 1 
    22  118  115 1 
    23  118  119 1 
    24  118  120 1 
    25  115  112 1 
    26  111  109 1 
    27  110  109 1 
    28  112  109 1 
    29  112  113 1 
    30  112  114 1 
    31  109  106 1 
    32  105  103 1 
    33  106  107 1 
    34  106  103 1 
    35  106  108 1 
    36  104  103 1 
    37  103  100 1 
    38   99   97 1 
    39  100  101 1 
    40  100   97 1 
    41  100  102 1 
    42   98   97 1 
    43   97   94 1 
    44   93   91 1 
    45   94   95 1 
    46   94   91 1 
    47   94   96 1 
    48   92   91 1 
    49   91   88 1 
    50   87   85 1 
    51   88   89 1 
    52   88   85 1 
    53   88   90 1 
    54   86   85 1 
    55   85   82 1 
    56   81   80 2 
    57   39   38 1 
    58   77   76 1 
    59   69   67 1 
    60   75   73 1 
    61   57   55 1 
    62   63   61 1 
    63   71   70 1 
    64   65   64 1 
    65   59   58 1 
    66   45   43 1 
    67   53   52 1 
    68   51   49 1 
    69   47   46 1 
    70   41   40 1 
    71   83   82 1 
    72   82   80 1 
    73   82   84 1 
    74   33   32 1 
    75   80   28 am
    76   38   40 1 
    77   38   36 2 
    78   79   76 1 
    79   73   76 1 
    80   73   70 1 
    81   73   74 1 
    82   76   78 1 
    83   70   67 1 
    84   70   72 1 
    85   67   64 1 
    86   67   68 1 
    87   61   58 1 
    88   61   64 1 
    89   61   62 1 
    90   58   55 1 
    91   58   60 1 
    92   64   66 1 
    93   55   52 1 
    94   55   56 1 
    95   52   49 1 
    96   52   54 1 
    97   49   46 1 
    98   49   50 1 
    99   43   46 1 
   100   43   40 1 
   101   43   44 1 
   102   46   48 1 
   103   40   42 1 
   104   32   36 1 
   105   32   30 1 
   106   32   34 1 
   107   31   30 1 
   108   36   37 1 
   109   28   30 1 
   110   28   29 1 
   111   30   25 1 
   112   34   35 1 
   113   25   27 1 
   114   25   23 1 
   115   25   26 1 
   116   21   20 2 
   117   23   20 1 
   118   20   22 1 
   119   20   24 1 
   120    8    6 1 
   121    9    6 1 
   122    7    6 1 
   123    6    1 1 
   124   24   17 1 
   125   18   17 1 
   126   17   19 1 
   127   17   14 1 
   128    3    2 1 
   129   16   14 1 
   130    1   14 1 
   131    1    2 1 
   132    1   10 1 
   133   14   15 1 
   134    4    2 1 
   135    2    5 1 
   136   13   10 1 
   137   12   10 1 
   138   10   11 1 
