@<TRIPOS>MOLECULE
C:\Users\Praveer\PycharmProjects\pdb_to_mol2_converter\data\pdb\asorp.pdb
   24    24     0     0     0
SMALL
GASTEIGER

@<TRIPOS>ATOM
      1 C2          1.4530   -0.0920   -0.1050 C.3       1 ASO1        0.0000
      2 O2          1.8290   -0.8000   -1.2590 O.3       1 ASO1        0.0000
      3 HO2         1.8130   -1.7190   -0.9640 H         1 ASO1        0.0000
      4 C6         -0.4220    0.9300   -1.1940 C.3       1 ASO1        0.0000
      5 H61        -1.5260    1.0430   -1.1110 H         1 ASO1        0.0000
      6 H62        -0.2190    0.4130   -2.1590 H         1 ASO1        0.0000
      7 O6          0.0360    0.1360   -0.0900 O.3       1 ASO1        0.0000
      8 C3          2.1830    1.2520   -0.0550 C.3       1 ASO1        0.0000
      9 H3          1.8730    1.7470    0.8960 H         1 ASO1        0.0000
     10 O3          3.6110    1.1130    0.0140 O.3       1 ASO1        0.0000
     11 HO3         3.9450    0.8710   -0.8560 H         1 ASO1        0.0000
     12 C4          1.7350    2.1560   -1.1980 C.3       1 ASO1        0.0000
     13 H4          2.0340    1.6690   -2.1570 H         1 ASO1        0.0000
     14 O4          2.3570    3.4390   -1.1590 O.3       1 ASO1        0.0000
     15 HO4         2.1630    3.8910   -1.9880 H         1 ASO1        0.0000
     16 C5          0.2270    2.2940   -1.1810 C.3       1 ASO1        0.0000
     17 H5         -0.0610    2.8070   -0.2300 H         1 ASO1        0.0000
     18 O5         -0.2620    3.0630   -2.2760 O.3       1 ASO1        0.0000
     19 HO5        -0.7330    3.8360   -1.9440 H         1 ASO1        0.0000
     20 C1          1.6770   -0.9490    1.1540 C.3       1 ASO1        0.0000
     21 H1A         0.9600   -0.6560    1.9510 H         1 ASO1        0.0000
     22 H1B         2.6890   -0.7100    1.5490 H         1 ASO1        0.0000
     23 O1          1.6470   -2.3800    0.9620 O.3       1 ASO1        0.0000
     24 HO1         0.7560   -2.7140    1.1210 H         1 ASO1        0.0000
@<TRIPOS>BOND
     1   18   19 1 
     2   18   16 1 
     3    6    4 1 
     4   13   12 1 
     5   15   14 1 
     6    2    3 1 
     7    2    1 1 
     8   12   16 1 
     9   12   14 1 
    10   12    8 1 
    11    4   16 1 
    12    4    5 1 
    13    4    7 1 
    14   16   17 1 
    15   11   10 1 
    16    1    7 1 
    17    1    8 1 
    18    1   20 1 
    19    8   10 1 
    20    8    9 1 
    21   23   24 1 
    22   23   20 1 
    23   20   22 1 
    24   20   21 1 
