@<TRIPOS>MOLECULE
C:\Users\Praveer\PycharmProjects\pdb_to_mol2_converter\data\pdb\asor.pdb
   24    24     0     0     0
SMALL
GASTEIGER

@<TRIPOS>ATOM
      1 O5          1.4260    0.0280    0.0690 O.3       1 ASO1        0.0000
      2 C2          1.9070    1.3770   -0.0120 C.3       1 ASO1        0.0000
      3 O2          2.5780    1.5720    1.1990 O.3       1 ASO1        0.0000
      4 HO2         1.8850    1.8590    1.8010 H         1 ASO1        0.0000
      5 C5         -0.0090    0.0080    0.0060 C.3       1 ASO1        0.0000
      6 H5         -0.3760    0.0250    1.0590 H         1 ASO1        0.0000
      7 C6         -0.4600   -1.2550   -0.6890 C.3       1 ASO1        0.0000
      8 H61         0.0300   -1.3390   -1.6860 H         1 ASO1        0.0000
      9 H62        -1.5610   -1.2250   -0.8500 H         1 ASO1        0.0000
     10 O6         -0.1500   -2.4130    0.0840 O.3       1 ASO1        0.0000
     11 HO6         0.8040   -2.4380    0.2290 H         1 ASO1        0.0000
     12 C1          2.8790    1.3850   -1.1800 C.3       1 ASO1        0.0000
     13 H11         2.3410    1.0600   -2.0990 H         1 ASO1        0.0000
     14 H12         3.6890    0.6440   -0.9910 H         1 ASO1        0.0000
     15 O1          3.4660    2.6720   -1.4330 O.3       1 ASO1        0.0000
     16 HO1         4.0190    2.9130   -0.6800 H         1 ASO1        0.0000
     17 C3          0.6520    2.3020   -0.1920 C.3       1 ASO1        0.0000
     18 H3          0.8580    3.1030   -0.9300 H         1 ASO1        0.0000
     19 O3          0.1640    2.8910    1.0110 O.3       1 ASO1        0.0000
     20 HO3         0.2310    3.8560    0.9540 H         1 ASO1        0.0000
     21 C4         -0.3910    1.3060   -0.6950 C.3       1 ASO1        0.0000
     22 H4         -1.4130    1.6140   -0.3730 H         1 ASO1        0.0000
     23 O4         -0.4270    1.2390   -2.1030 O.3       1 ASO1        0.0000
     24 HO4        -1.3350    1.2660   -2.4270 H         1 ASO1        0.0000
@<TRIPOS>BOND
     1   24   23 1 
     2   23   21 1 
     3   13   12 1 
     4    8    7 1 
     5   15   12 1 
     6   15   16 1 
     7   12   14 1 
     8   12    2 1 
     9   18   17 1 
    10    9    7 1 
    11   21   22 1 
    12   21   17 1 
    13   21    5 1 
    14    7    5 1 
    15    7   10 1 
    16   17    2 1 
    17   17   19 1 
    18    2    1 1 
    19    2    3 1 
    20    5    1 1 
    21    5    6 1 
    22   10   11 1 
    23   20   19 1 
    24    3    4 1 
