@<TRIPOS>MOLECULE
C:\Users\Praveer\PycharmProjects\pdb_to_mol2_converter\data\pdb\atag.pdb
   24    24     0     0     0
SMALL
GASTEIGER

@<TRIPOS>ATOM
      1 O5          1.4270    0.0030   -0.0080 O.3       1 ATA1        0.0000
      2 C2          1.9140    1.3490   -0.0380 C.3       1 ATA1        0.0000
      3 O2          2.5560    1.5580    1.1840 O.3       1 ATA1        0.0000
      4 HO2         3.4470    1.8360    0.9470 H         1 ATA1        0.0000
      5 C5         -0.0110   -0.0030    0.0020 C.3       1 ATA1        0.0000
      6 H5         -0.3240   -0.0100    1.0710 H         1 ATA1        0.0000
      7 C6         -0.5040   -1.2470   -0.6950 C.3       1 ATA1        0.0000
      8 H61        -0.0670   -1.3160   -1.7170 H         1 ATA1        0.0000
      9 H62        -1.6120   -1.2070   -0.8000 H         1 ATA1        0.0000
     10 O6         -0.1590   -2.4170    0.0460 O.3       1 ATA1        0.0000
     11 HO6         0.7980   -2.4280    0.1680 H         1 ATA1        0.0000
     12 C1          2.9170    1.4100   -1.1840 C.3       1 ATA1        0.0000
     13 H11         2.3790    1.2580   -2.1460 H         1 ATA1        0.0000
     14 H12         3.6320    0.5630   -1.0720 H         1 ATA1        0.0000
     15 O1          3.6770    2.6280   -1.2460 O.3       1 ATA1        0.0000
     16 HO1         3.1070    3.3350   -1.5760 H         1 ATA1        0.0000
     17 C3          0.6710    2.2820   -0.1620 C.3       1 ATA1        0.0000
     18 H3          0.3690    2.6050    0.8620 H         1 ATA1        0.0000
     19 O3          0.8360    3.4540   -0.9500 O.3       1 ATA1        0.0000
     20 HO3         1.0420    4.2010   -0.3750 H         1 ATA1        0.0000
     21 C4         -0.4180    1.3150   -0.6470 C.3       1 ATA1        0.0000
     22 H4         -1.4100    1.6380   -0.2580 H         1 ATA1        0.0000
     23 O4         -0.5390    1.2670   -2.0480 O.3       1 ATA1        0.0000
     24 HO4        -0.3230    2.1480   -2.3810 H         1 ATA1        0.0000
@<TRIPOS>BOND
     1   24   23 1 
     2   13   12 1 
     3   23   21 1 
     4    8    7 1 
     5   16   15 1 
     6   15   12 1 
     7   12   14 1 
     8   12    2 1 
     9   19   20 1 
    10   19   17 1 
    11    9    7 1 
    12    7    5 1 
    13    7   10 1 
    14   21   22 1 
    15   21   17 1 
    16   21    5 1 
    17   17    2 1 
    18   17   18 1 
    19    2    1 1 
    20    2    3 1 
    21    1    5 1 
    22    5    6 1 
    23   10   11 1 
    24    4    3 1 
