@<TRIPOS>MOLECULE
C:\Users\Praveer\PycharmProjects\pdb_to_mol2_converter\data\pdb\atagp.pdb
   24    24     0     0     0
SMALL
GASTEIGER

@<TRIPOS>ATOM
      1 C2          1.5110   -0.0330    0.0750 C.3       1 ATA1        0.0000
      2 O2          2.0750   -0.6410    1.2070 O.3       1 ATA1        0.0000
      3 HO2         2.7880   -1.1840    0.8460 H         1 ATA1        0.0000
      4 C6         -0.3950    0.8620    1.2180 C.3       1 ATA1        0.0000
      5 H61        -0.0770    0.4240    2.1920 H         1 ATA1        0.0000
      6 H62        -1.5080    0.8570    1.2000 H         1 ATA1        0.0000
      7 O6          0.0770    0.0530    0.1310 O.3       1 ATA1        0.0000
      8 C3          2.1240    1.3710   -0.0400 C.3       1 ATA1        0.0000
      9 H3          3.2320    1.2740    0.0690 H         1 ATA1        0.0000
     10 O3          1.8980    1.9890   -1.3130 O.3       1 ATA1        0.0000
     11 HO3         2.1240    2.9240   -1.2000 H         1 ATA1        0.0000
     12 C4          1.6290    2.2650    1.0810 C.3       1 ATA1        0.0000
     13 H4          1.9730    1.8390    2.0550 H         1 ATA1        0.0000
     14 O4          2.1610    3.5880    0.9770 O.3       1 ATA1        0.0000
     15 HO4         1.7890    4.0970    1.7080 H         1 ATA1        0.0000
     16 C5          0.1150    2.2800    1.0850 C.3       1 ATA1        0.0000
     17 H5         -0.2400    2.6950    0.1100 H         1 ATA1        0.0000
     18 O5         -0.4090    3.0890    2.1340 O.3       1 ATA1        0.0000
     19 HO5        -1.1760    3.5780    1.8180 H         1 ATA1        0.0000
     20 C1          1.8210   -0.8990   -1.1480 C.3       1 ATA1        0.0000
     21 H1A         1.4950   -0.3860   -2.0780 H         1 ATA1        0.0000
     22 H1B         1.2050   -1.8250   -1.0610 H         1 ATA1        0.0000
     23 O1          3.1990   -1.3090   -1.2570 O.3       1 ATA1        0.0000
     24 HO1         3.6610   -0.7340   -1.8800 H         1 ATA1        0.0000
@<TRIPOS>BOND
     1   21   20 1 
     2   24   23 1 
     3   10   11 1 
     4   10    8 1 
     5   23   20 1 
     6   20   22 1 
     7   20    1 1 
     8    8    9 1 
     9    8    1 1 
    10    8   12 1 
    11    1    7 1 
    12    1    2 1 
    13   17   16 1 
    14    7    4 1 
    15    3    2 1 
    16   14   12 1 
    17   14   15 1 
    18   12   16 1 
    19   12   13 1 
    20   16    4 1 
    21   16   18 1 
    22    6    4 1 
    23    4    5 1 
    24   19   18 1 
