@<TRIPOS>MOLECULE
C:\Users\Praveer\PycharmProjects\pdb_to_mol2_converter\data\pdb\atala.pdb
   22    22     0     0     0
SMALL
GASTEIGER

@<TRIPOS>ATOM
      1 C1          1.4770   -0.0090    0.0090 C.3       1 ATA1        0.0000
      2 H1          1.8290   -0.5670   -0.8900 H         1 ATA1        0.0000
      3 O1          1.9080   -0.7070    1.1450 O.3       1 ATA1        0.0000
      4 HO1         1.4760   -1.5640    1.1020 H         1 ATA1        0.0000
      5 C5         -0.5080    0.8640    1.0290 C.3       1 ATA1        0.0000
      6 H5         -0.2400    0.3960    2.0010 H         1 ATA1        0.0000
      7 O5          0.0520    0.0740   -0.0540 O.3       1 ATA1        0.0000
      8 C2          2.1030    1.3800   -0.0090 C.3       1 ATA1        0.0000
      9 H2          3.2010    1.2700    0.1560 H         1 ATA1        0.0000
     10 O2          1.9410    2.0020   -1.2870 O.3       1 ATA1        0.0000
     11 HO2         1.0220    2.3260   -1.3020 H         1 ATA1        0.0000
     12 C3          1.5360    2.2390    1.1130 C.3       1 ATA1        0.0000
     13 H3          1.7950    1.7530    2.0840 H         1 ATA1        0.0000
     14 O3          2.1110    3.5430    1.1420 O.3       1 ATA1        0.0000
     15 HO3         1.7740    3.9900    0.3550 H         1 ATA1        0.0000
     16 C4          0.0230    2.2990    1.0080 C.3       1 ATA1        0.0000
     17 H4         -0.3810    2.8420    1.8960 H         1 ATA1        0.0000
     18 O4         -0.4050    2.9970   -0.1660 O.3       1 ATA1        0.0000
     19 HO4        -1.2990    2.6120   -0.3440 H         1 ATA1        0.0000
     20 C6         -2.0400    0.8880    0.9530 C.2       1 ATA1        0.0000
     21 O61        -2.6270    0.3980    1.9500 O.co2     1 ATA1        0.0000
     22 O62        -2.5260    1.4630   -0.0600 O.co2     1 ATA1        0.0000
@<TRIPOS>BOND
     1   11   10 1 
     2   10    8 1 
     3    2    1 1 
     4   19   18 1 
     5   18   16 1 
     6   22   20 ar
     7    7    1 1 
     8    7    5 1 
     9    8    1 1 
    10    8    9 1 
    11    8   12 1 
    12    1    3 1 
    13   15   14 1 
    14   20    5 1 
    15   20   21 ar
    16   16    5 1 
    17   16   12 1 
    18   16   17 1 
    19    5    6 1 
    20    4    3 1 
    21   12   14 1 
    22   12   13 1 
