@<TRIPOS>MOLECULE
C:\Users\Praveer\PycharmProjects\pdb_to_mol2_converter\data\pdb\atal.pdb
   24    24     0     0     0
SMALL
GASTEIGER

@<TRIPOS>ATOM
      1 C1          1.4390    0.0030   -0.0040 C.3       1 ATA1        0.0000
      2 H1          1.7910   -0.5560   -0.9050 H         1 ATA1        0.0000
      3 O1          1.8520   -0.7090    1.1300 O.3       1 ATA1        0.0000
      4 HO1         1.6200   -1.6300    0.9900 H         1 ATA1        0.0000
      5 C5         -0.5380    0.9130    0.9870 C.3       1 ATA1        0.0000
      6 H5         -0.2640    0.4430    1.9630 H         1 ATA1        0.0000
      7 O5          0.0110    0.1090   -0.0780 O.3       1 ATA1        0.0000
      8 C2          2.1010    1.3760   -0.0160 C.3       1 ATA1        0.0000
      9 H2          3.1960    1.2400    0.1530 H         1 ATA1        0.0000
     10 O2          1.9590    2.0130   -1.2890 O.3       1 ATA1        0.0000
     11 HO2         1.0780    2.4270   -1.2910 H         1 ATA1        0.0000
     12 C3          1.5460    2.2380    1.1070 C.3       1 ATA1        0.0000
     13 H3          1.7850    1.7370    2.0750 H         1 ATA1        0.0000
     14 O3          2.1560    3.5240    1.1610 O.3       1 ATA1        0.0000
     15 HO3         1.9690    3.9630    0.3220 H         1 ATA1        0.0000
     16 C4          0.0340    2.3320    0.9880 C.3       1 ATA1        0.0000
     17 H4         -0.3600    2.8750    1.8800 H         1 ATA1        0.0000
     18 O4         -0.3770    3.0510   -0.1740 O.3       1 ATA1        0.0000
     19 HO4        -1.2900    2.7700   -0.3700 H         1 ATA1        0.0000
     20 C6         -2.0540    0.8550    0.8950 C.3       1 ATA1        0.0000
     21 H61        -2.5010    1.4610    1.7160 H         1 ATA1        0.0000
     22 H62        -2.3950   -0.1980    1.0310 H         1 ATA1        0.0000
     23 O6         -2.5510    1.3410   -0.3540 O.3       1 ATA1        0.0000
     24 HO6        -2.3160    0.7110   -1.0480 H         1 ATA1        0.0000
@<TRIPOS>BOND
     1   11   10 1 
     2   10    8 1 
     3   24   23 1 
     4    2    1 1 
     5   19   18 1 
     6   23   20 1 
     7   18   16 1 
     8    7    1 1 
     9    7    5 1 
    10    8    1 1 
    11    8    9 1 
    12    8   12 1 
    13    1    3 1 
    14   15   14 1 
    15   20    5 1 
    16   20   22 1 
    17   20   21 1 
    18    5   16 1 
    19    5    6 1 
    20   16   12 1 
    21   16   17 1 
    22    4    3 1 
    23   12   14 1 
    24   12   13 1 
