@<TRIPOS>MOLECULE
C:\Users\Praveer\PycharmProjects\pdb_to_mol2_converter\data\pdb\ataln.pdb
   25    25     0     0     0
SMALL
GASTEIGER

@<TRIPOS>ATOM
      1 C1          1.4170   -0.0520    0.0080 C.3       1 ATA1        0.0000
      2 H1          1.7580   -0.6250   -0.8870 H         1 ATA1        0.0000
      3 O1          1.8240   -0.7470    1.1560 O.3       1 ATA1        0.0000
      4 HO1         1.5620   -1.6640    1.0390 H         1 ATA1        0.0000
      5 C5         -0.5450    0.8960    0.9970 C.3       1 ATA1        0.0000
      6 H5         -0.2840    0.4330    1.9790 H         1 ATA1        0.0000
      7 O5         -0.0090    0.0680   -0.0550 O.3       1 ATA1        0.0000
      8 C2          2.0970    1.3140   -0.0460 C.3       1 ATA1        0.0000
      9 H2          3.1860    1.1540    0.1560 H         1 ATA1        0.0000
     10 N2          2.0450    1.9290   -1.3670 N.3       1 ATA1        0.0000
     11 HN21        1.1790    2.4110   -1.5350 H         1 ATA1        0.0000
     12 HN22        2.8800    2.3760   -1.6840 H         1 ATA1        0.0000
     13 C3          1.5590    2.1970    1.0660 C.3       1 ATA1        0.0000
     14 H3          1.8230    1.7200    2.0400 H         1 ATA1        0.0000
     15 O3          2.1780    3.4770    1.0610 O.3       1 ATA1        0.0000
     16 HO3         1.8020    3.9420    0.3030 H         1 ATA1        0.0000
     17 C4          0.0480    2.3070    0.9920 C.3       1 ATA1        0.0000
     18 H4         -0.3110    2.8400    1.9050 H         1 ATA1        0.0000
     19 O4         -0.3960    3.0600   -0.1360 O.3       1 ATA1        0.0000
     20 HO4        -1.2590    2.6910   -0.3980 H         1 ATA1        0.0000
     21 C6         -2.0600    0.8600    0.8890 C.3       1 ATA1        0.0000
     22 H61        -2.5090    1.5080    1.6760 H         1 ATA1        0.0000
     23 H62        -2.4190   -0.1800    1.0620 H         1 ATA1        0.0000
     24 O6         -2.5260    1.2970   -0.3900 O.3       1 ATA1        0.0000
     25 HO6        -2.2270    0.6640   -1.0570 H         1 ATA1        0.0000
@<TRIPOS>BOND
     1   12   10 1 
     2   11   10 1 
     3   10    8 1 
     4   25   24 1 
     5    2    1 1 
     6   20   19 1 
     7   24   21 1 
     8   19   17 1 
     9    7    1 1 
    10    7    5 1 
    11    8    1 1 
    12    8    9 1 
    13    8   13 1 
    14    1    3 1 
    15   16   15 1 
    16   21    5 1 
    17   21   23 1 
    18   21   22 1 
    19   17    5 1 
    20   17   13 1 
    21   17   18 1 
    22    5    6 1 
    23    4    3 1 
    24   15   13 1 
    25   13   14 1 
