@<TRIPOS>MOLECULE
C:\Users\Praveer\PycharmProjects\pdb_to_mol2_converter\data\pdb\atalna.pdb
   30    30     0     0     0
SMALL
GASTEIGER

@<TRIPOS>ATOM
      1 C1          1.4660    0.1430    0.0200 C.3       1 ATA1        0.0000
      2 H1          1.8850   -0.3450   -0.8920 H         1 ATA1        0.0000
      3 O1          1.9280   -0.5640    1.1370 O.3       1 ATA1        0.0000
      4 HO1         1.7930   -1.5000    0.9700 H         1 ATA1        0.0000
      5 C5         -0.6080    0.8040    1.0190 C.3       1 ATA1        0.0000
      6 H5         -0.3310    0.2670    1.9590 H         1 ATA1        0.0000
      7 O5          0.0390    0.1440   -0.0920 O.3       1 ATA1        0.0000
      8 C2          1.9720    1.5730    0.0620 C.3       1 ATA1        0.0000
      9 H2          3.0800    1.5230    0.2200 H         1 ATA1        0.0000
     10 N           1.7300    2.2500   -1.2050 N.am      1 ATA1        0.0000
     11 HN          0.8580    2.0440   -1.6360 H         1 ATA1        0.0000
     12 C           2.4900    3.2230   -1.7140 C.2       1 ATA1        0.0000
     13 O           3.5040    3.6190   -1.1590 O.2       1 ATA1        0.0000
     14 CT          2.0150    3.8350   -3.0040 C.3       1 ATA1        0.0000
     15 HT1         0.9630    3.5470   -3.2070 H         1 ATA1        0.0000
     16 HT2         2.6680    3.5010   -3.8360 H         1 ATA1        0.0000
     17 HT3         2.0770    4.9390   -2.9230 H         1 ATA1        0.0000
     18 C3          1.3630    2.2900    1.2530 C.3       1 ATA1        0.0000
     19 H3          1.6600    1.7410    2.1790 H         1 ATA1        0.0000
     20 O3          1.9000    3.5980    1.4000 O.3       1 ATA1        0.0000
     21 HO3         2.1330    3.9320    0.5220 H         1 ATA1        0.0000
     22 C4         -0.1600    2.2620    1.1830 C.3       1 ATA1        0.0000
     23 H4         -0.5560    2.6510    2.1510 H         1 ATA1        0.0000
     24 O4         -0.7050    3.0780    0.1480 O.3       1 ATA1        0.0000
     25 HO4        -1.5630    2.6900   -0.1010 H         1 ATA1        0.0000
     26 C6         -2.1100    0.6230    0.8490 C.3       1 ATA1        0.0000
     27 H61        -2.6460    1.1220    1.6880 H         1 ATA1        0.0000
     28 H62        -2.3590   -0.4610    0.8910 H         1 ATA1        0.0000
     29 O6         -2.6040    1.1510   -0.3860 O.3       1 ATA1        0.0000
     30 HO6        -2.2800    0.6020   -1.1110 H         1 ATA1        0.0000
@<TRIPOS>BOND
     1   16   14 1 
     2   15   14 1 
     3   14   17 1 
     4   14   12 1 
     5   12   10 am
     6   12   13 2 
     7   11   10 1 
     8   10    8 1 
     9   30   29 1 
    10    2    1 1 
    11   29   26 1 
    12   25   24 1 
    13    7    1 1 
    14    7    5 1 
    15    1    8 1 
    16    1    3 1 
    17    8    9 1 
    18    8   18 1 
    19   24   22 1 
    20   21   20 1 
    21   26   28 1 
    22   26    5 1 
    23   26   27 1 
    24    4    3 1 
    25    5   22 1 
    26    5    6 1 
    27   22   18 1 
    28   22   23 1 
    29   18   20 1 
    30   18   19 1 
