@<TRIPOS>MOLECULE
C:\Users\Praveer\PycharmProjects\pdb_to_mol2_converter\data\pdb\atbz.pdb
   18    18     0     0     0
SMALL
GASTEIGER

@<TRIPOS>ATOM
      1 C1          1.4090   -0.0050   -0.0110 C.ar      1 ATB1        0.0000
      2 H1          1.9480   -0.9400   -0.0130 H         1 ATB1        0.0000
      3 C2          2.1050    1.2100   -0.0150 C.ar      1 ATB1        0.0000
      4 H2          3.1850    1.2150   -0.0180 H         1 ATB1        0.0000
      5 C3          1.4000    2.4200   -0.0020 C.ar      1 ATB1        0.0000
      6 H3          1.9320    3.3600    0.0090 H         1 ATB1        0.0000
      7 C4         -0.0030    2.4170    0.0070 C.ar      1 ATB1        0.0000
      8 H4         -0.5190    3.3630    0.0430 H         1 ATB1        0.0000
      9 C6          0.0080   -0.0040    0.0030 C.ar      1 ATB1        0.0000
     10 H6         -0.5400   -0.9330    0.0090 H         1 ATB1        0.0000
     11 C5         -0.7140    1.1980    0.0110 C.ar      1 ATB1        0.0000
     12 O7         -2.1250    1.1200   -0.0130 O.3       1 ATB1        0.0000
     13 C7         -2.8820    2.3510   -0.1030 C.3       1 ATB1        0.0000
     14 H71        -3.9320    2.0690   -0.3280 H         1 ATB1        0.0000
     15 H72        -2.5240    2.9650   -0.9550 H         1 ATB1        0.0000
     16 C8         -2.9670    3.2740    1.1350 C.2       1 ATB1        0.0000
     17 O81        -2.3790    2.9350    2.1910 O.co2     1 ATB1        0.0000
     18 O82        -3.6410    4.3220    0.9360 O.co2     1 ATB1        0.0000
@<TRIPOS>BOND
     1   15   13 1 
     2   14   13 1 
     3   13   12 1 
     4   13   16 1 
     5    4    3 1 
     6    3    1 ar
     7    3    5 ar
     8    2    1 1 
     9   12   11 1 
    10    1    9 ar
    11    5    7 ar
    12    5    6 1 
    13    9   10 1 
    14    9   11 ar
    15    7   11 ar
    16    7    8 1 
    17   18   16 ar
    18   16   17 ar
