@<TRIPOS>MOLECULE
C:\Users\Praveer\PycharmProjects\pdb_to_mol2_converter\data\pdb\atp.pdb
   43    45     0     0     0
SMALL
GASTEIGER

@<TRIPOS>ATOM
      1 C4'        -0.4370   -0.5490    1.3790 C.3       1 ATP1        0.0000
      2 H4'        -1.5320   -0.7280    1.2750 H         1 ATP1        0.0000
      3 O4'         0.1730   -1.7930    1.6700 O.3       1 ATP1        0.0000
      4 C1'         0.3030   -1.8650    3.0880 C.3       1 ATP1        0.0000
      5 H1'        -0.1380   -2.8180    3.4550 H         1 ATP1        0.0000
      6 C5          3.5810   -2.1260    4.6170 C.ar      1 ATP1        0.0000
      7 N7          3.9600   -1.5440    3.4640 N.ar      1 ATP1        0.0000
      8 C8          2.7960   -1.3900    2.7760 C.ar      1 ATP1        0.0000
      9 H8          2.7450   -0.9500    1.7960 H         1 ATP1        0.0000
     10 N9          1.7230   -1.8450    3.4770 N.ar      1 ATP1        0.0000
     11 N1          3.6970   -3.1380    6.7440 N.2       1 ATP1        0.0000
     12 C2          2.3340   -3.3160    6.7250 C.2       1 ATP1        0.0000
     13 H2          1.8450   -3.8000    7.5600 H         1 ATP1        0.0000
     14 N3          1.5920   -2.8920    5.6560 N.pl3     1 ATP1        0.0000
     15 C4          2.2430   -2.3040    4.6230 C.ar      1 ATP1        0.0000
     16 C6          4.3460   -2.5400    5.6980 C.3       1 ATP1        0.0000
     17 N6          5.7490   -2.3640    5.7260 N.3       1 ATP1        0.0000
     18 H61         6.2940   -2.6860    6.5390 H         1 ATP1        0.0000
     19 H62         6.2370   -1.9080    4.9420 H         1 ATP1        0.0000
     20 C2'        -0.4350   -0.6580    3.6930 C.3       1 ATP1        0.0000
     21 H2''       -0.0730   -0.3270    4.6940 H         1 ATP1        0.0000
     22 O2'        -1.8140   -0.9250    3.7690 O.3       1 ATP1        0.0000
     23 H2'        -1.9430   -1.5270    4.5470 H         1 ATP1        0.0000
     24 C3'        -0.1730    0.3410    2.5930 C.3       1 ATP1        0.0000
     25 H3'         0.8990    0.6320    2.6170 H         1 ATP1        0.0000
     26 O3'        -0.9640    1.5030    2.6610 O.3       1 ATP1        0.0000
     27 H3T        -1.8980    1.2590    2.4310 H         1 ATP1        0.0000
     28 C5'         0.0600    0.0320    0.0490 C.3       1 ATP1        0.0000
     29 H5'        -0.2460   -0.6530   -0.7710 H         1 ATP1        0.0000
     30 H5''       -0.4630    0.9960   -0.1410 H         1 ATP1        0.0000
     31 O5'         1.4680    0.1030    0.0300 O.3       1 ATP1        0.0000
     32 PA          1.9940    1.7530   -0.2010 P.3       1 ATP1        0.0000
     33 O1A         3.5160    1.6660   -0.4890 O.2       1 ATP1        0.0000
     34 O2A         1.8400    2.6780    1.2640 O.3       1 ATP1        0.0000
     35 O3A         1.2760    2.4750   -1.6220 O.3       1 ATP1        0.0000
     36 PB          0.5950    4.0090   -1.1510 P.3       1 ATP1        0.0000
     37 O1B         1.7490    4.8730   -0.5740 O.2       1 ATP1        0.0000
     38 O2B        -0.5940    3.8330    0.1090 O.3       1 ATP1        0.0000
     39 O3B         0.0160    4.8720   -2.5540 O.3       1 ATP1        0.0000
     40 PG         -1.7070    5.0500   -2.3820 P.3       1 ATP1        0.0000
     41 O1G        -2.2070    5.7390   -3.6790 O.2       1 ATP1        0.0000
     42 O2G        -2.1270    6.1070   -1.0700 O.3       1 ATP1        0.0000
     43 O3G        -2.5250    3.5210   -2.2890 O.3       1 ATP1        0.0000
@<TRIPOS>BOND
     1   41   40 2 
     2   39   40 1 
     3   39   36 1 
     4   40   43 1 
     5   40   42 1 
     6   35   36 1 
     7   35   32 1 
     8   36   37 2 
     9   36   38 1 
    10   29   28 1 
    11   33   32 2 
    12   32   31 1 
    13   32   34 1 
    14   30   28 1 
    15   31   28 1 
    16   28    1 1 
    17    2    1 1 
    18    1    3 1 
    19    1   24 1 
    20    3    4 1 
    21    9    8 1 
    22   27   26 1 
    23   24   25 1 
    24   24   26 1 
    25   24   20 1 
    26    8    7 ar
    27    8   10 ar
    28    4    5 1 
    29    4   10 1 
    30    4   20 1 
    31    7    6 ar
    32   10   15 ar
    33   20   22 1 
    34   20   21 1 
    35   22   23 1 
    36    6   15 ar
    37    6   16 1 
    38   15   14 1 
    39   19   17 1 
    40   14   12 1 
    41   16   17 1 
    42   16   11 1 
    43   17   18 1 
    44   12   11 2 
    45   12   13 1 
