@<TRIPOS>MOLECULE
C:\Users\Praveer\PycharmProjects\pdb_to_mol2_converter\data\pdb\atyv.pdb
   22    22     0     0     0
SMALL
GASTEIGER

@<TRIPOS>ATOM
      1 C1          1.4230    0.0280    0.0980 C.3       1 ATY1        0.0000
      2 H1          1.8060   -0.5390   -0.7830 H         1 ATY1        0.0000
      3 O1          1.9470   -0.5670    1.2550 O.3       1 ATY1        0.0000
      4 HO1         1.7350   -1.5010    1.2090 H         1 ATY1        0.0000
      5 C5         -0.6040    0.7660    1.1180 C.3       1 ATY1        0.0000
      6 H5         -0.3000    0.3290    2.0970 H         1 ATY1        0.0000
      7 O5         -0.0080    0.0050    0.0550 O.3       1 ATY1        0.0000
      8 C2          1.9140    1.4680   -0.0130 C.3       1 ATY1        0.0000
      9 H2          3.0280    1.4720    0.0780 H         1 ATY1        0.0000
     10 O2          1.6010    2.0370   -1.2770 O.3       1 ATY1        0.0000
     11 HO2         0.6510    1.9620   -1.4210 H         1 ATY1        0.0000
     12 C3          1.3310    2.3420    1.0580 C.3       1 ATY1        0.0000
     13 H31         1.6400    3.4030    0.9070 H         1 ATY1        0.0000
     14 H32         1.7440    2.0150    2.0420 H         1 ATY1        0.0000
     15 C4         -0.1590    2.2280    1.0720 C.3       1 ATY1        0.0000
     16 H4         -0.5800    2.6840    0.1430 H         1 ATY1        0.0000
     17 O4         -0.6640    2.9650    2.1680 O.3       1 ATY1        0.0000
     18 HO4        -0.2070    2.6970    2.9700 H         1 ATY1        0.0000
     19 C6         -2.1270    0.5910    0.9710 C.3       1 ATY1        0.0000
     20 H61        -2.6610    1.1380    1.7750 H         1 ATY1        0.0000
     21 H62        -2.3960   -0.4850    1.0280 H         1 ATY1        0.0000
     22 H63        -2.4640    0.9860   -0.0100 H         1 ATY1        0.0000
@<TRIPOS>BOND
     1   11   10 1 
     2   10    8 1 
     3    2    1 1 
     4    8    9 1 
     5    8    1 1 
     6    8   12 1 
     7   22   19 1 
     8    7    1 1 
     9    7    5 1 
    10    1    3 1 
    11   16   15 1 
    12   13   12 1 
    13   19   21 1 
    14   19    5 1 
    15   19   20 1 
    16   12   15 1 
    17   12   14 1 
    18   15    5 1 
    19   15   17 1 
    20    5    6 1 
    21    4    3 1 
    22   17   18 1 
