@<TRIPOS>MOLECULE
C:\Users\Praveer\PycharmProjects\pdb_to_mol2_converter\data\pdb\axulf.pdb
   20    20     0     0     0
SMALL
GASTEIGER

@<TRIPOS>ATOM
      1 O5          1.3650    0.0120   -0.4390 O.3       1 AXU1        0.0000
      2 C2          1.9330    1.2930   -0.1410 C.3       1 AXU1        0.0000
      3 O2          2.4450    1.2700    1.1590 O.3       1 AXU1        0.0000
      4 HO2         3.3160    1.6730    1.0840 H         1 AXU1        0.0000
      5 C5         -0.0070    0.0560   -0.0460 C.3       1 AXU1        0.0000
      6 H51        -0.0610    0.0240    1.0540 H         1 AXU1        0.0000
      7 H52        -0.5300   -0.8200   -0.4560 H         1 AXU1        0.0000
      8 C1          3.0550    1.5160   -1.1440 C.3       1 AXU1        0.0000
      9 H11         2.6360    1.4800   -2.1740 H         1 AXU1        0.0000
     10 H12         3.7870    0.6810   -1.0560 H         1 AXU1        0.0000
     11 O1          3.7560    2.7570   -0.9620 O.3       1 AXU1        0.0000
     12 HO1         3.1460    3.4780   -1.1770 H         1 AXU1        0.0000
     13 C3          0.7260    2.2930   -0.2390 C.3       1 AXU1        0.0000
     14 H3          0.5230    2.7090    0.7750 H         1 AXU1        0.0000
     15 O3          0.8860    3.3800   -1.1360 O.3       1 AXU1        0.0000
     16 HO3         0.3030    4.1000   -0.8690 H         1 AXU1        0.0000
     17 C4         -0.4370    1.3730   -0.6420 C.3       1 AXU1        0.0000
     18 H4         -0.5120    1.2800   -1.7500 H         1 AXU1        0.0000
     19 O4         -1.6800    1.7380   -0.0950 O.3       1 AXU1        0.0000
     20 HO4        -2.1700    2.2790   -0.7190 H         1 AXU1        0.0000
@<TRIPOS>BOND
     1    9    8 1 
     2   18   17 1 
     3   12   11 1 
     4    8   10 1 
     5    8   11 1 
     6    8    2 1 
     7   15   16 1 
     8   15   13 1 
     9   20   19 1 
    10   17   13 1 
    11   17   19 1 
    12   17    5 1 
    13    7    5 1 
    14    1    2 1 
    15    1    5 1 
    16   13    2 1 
    17   13   14 1 
    18    2    3 1 
    19    5    6 1 
    20    4    3 1 
