@<TRIPOS>MOLECULE
C:\Users\Praveer\PycharmProjects\pdb_to_mol2_converter\data\pdb\axyf.pdb
   20    20     0     0     0
SMALL
GASTEIGER

@<TRIPOS>ATOM
      1 O4          1.4050    0.0020    0.0270 O.3       1 AXY1        0.0000
      2 C1          1.8930    1.3440    0.0010 C.3       1 AXY1        0.0000
      3 H1          2.3550    1.5050   -0.9990 H         1 AXY1        0.0000
      4 O1          2.8470    1.4980    1.0100 O.3       1 AXY1        0.0000
      5 HO1         3.4510    0.7570    0.9120 H         1 AXY1        0.0000
      6 C4         -0.0320    0.0230    0.0300 C.3       1 AXY1        0.0000
      7 H4         -0.3560   -0.1170    1.0860 H         1 AXY1        0.0000
      8 C5         -0.5120   -1.1200   -0.8280 C.3       1 AXY1        0.0000
      9 H51        -0.2660   -2.0940   -0.3470 H         1 AXY1        0.0000
     10 H52         0.0150   -1.0950   -1.8110 H         1 AXY1        0.0000
     11 O5         -1.9190   -1.0330   -1.0670 O.3       1 AXY1        0.0000
     12 HO5        -2.4150   -1.3290   -0.2950 H         1 AXY1        0.0000
     13 C2          0.6600    2.2740    0.1820 C.3       1 AXY1        0.0000
     14 H2          0.8070    3.2420   -0.3390 H         1 AXY1        0.0000
     15 O2          0.3340    2.5320    1.5360 O.3       1 AXY1        0.0000
     16 HO2         1.1610    2.4500    2.0320 H         1 AXY1        0.0000
     17 C3         -0.4270    1.4230   -0.4500 C.3       1 AXY1        0.0000
     18 H3         -1.4410    1.7070   -0.0940 H         1 AXY1        0.0000
     19 O3         -0.4120    1.5170   -1.8540 O.3       1 AXY1        0.0000
     20 HO3        -1.0820    0.9060   -2.1920 H         1 AXY1        0.0000
@<TRIPOS>BOND
     1   20   19 1 
     2   19   17 1 
     3   10    8 1 
     4   11    8 1 
     5   11   12 1 
     6    3    2 1 
     7    8    9 1 
     8    8    6 1 
     9   17   18 1 
    10   17    6 1 
    11   17   13 1 
    12   14   13 1 
    13    2    1 1 
    14    2   13 1 
    15    2    4 1 
    16    1    6 1 
    17    6    7 1 
    18   13   15 1 
    19    5    4 1 
    20   15   16 1 
