@<TRIPOS>MOLECULE
C:\Users\Praveer\PycharmProjects\pdb_to_mol2_converter\data\pdb\azdo.pdb
   10    10     0     0     0
SMALL
GASTEIGER

@<TRIPOS>ATOM
      1 N1          0.1560    0.4630    0.1860 N.am      1 AZD1        0.0000
      2 H1         -0.6970   -0.0810    0.2490 H         1 AZD1        0.0000
      3 C2          1.4590    0.0900   -0.0530 C.2       1 AZD1        0.0000
      4 O2          2.0010   -0.9950   -0.2410 O.2       1 AZD1        0.0000
      5 C3          1.9050    1.5620    0.0160 C.3       1 AZD1        0.0000
      6 H31         2.2980    1.9540   -0.9240 H         1 AZD1        0.0000
      7 H32         2.5670    1.7890    0.8540 H         1 AZD1        0.0000
      8 C4          0.4260    1.9030    0.2720 C.3       1 AZD1        0.0000
      9 H41         0.2360    2.3370    1.2600 H         1 AZD1        0.0000
     10 H42        -0.0370    2.4950   -0.5260 H         1 AZD1        0.0000
@<TRIPOS>BOND
     1    6    5 1 
     2   10    8 1 
     3    4    3 2 
     4    3    5 1 
     5    3    1 am
     6    5    8 1 
     7    5    7 1 
     8    1    2 1 
     9    1    8 1 
    10    8    9 1 
