@<TRIPOS>MOLECULE
C:\Users\Praveer\PycharmProjects\pdb_to_mol2_converter\data\pdb\azul.pdb
   18    19     0     0     0
SMALL
GASTEIGER

@<TRIPOS>ATOM
      1 C1          1.9310    1.3330    0.0000 C.ar      1 AZU1        0.0000
      2 H1          2.9500    1.6870    0.0000 H         1 AZU1        0.0000
      3 C2          0.8080    2.1270    0.0000 C.ar      1 AZU1        0.0000
      4 H2          0.8220    3.2090    0.0000 H         1 AZU1        0.0000
      5 C3         -0.3360    1.3630   -0.0000 C.ar      1 AZU1        0.0000
      6 H3         -1.3450    1.7440   -0.0000 H         1 AZU1        0.0000
      7 C4          0.0310    0.0090   -0.0000 C.ar      1 AZU1        0.0000
      8 C5         -0.8310   -1.0800   -0.0000 C.ar      1 AZU1        0.0000
      9 H5         -1.8910   -0.8250   -0.0000 H         1 AZU1        0.0000
     10 C6         -0.5190   -2.4410   -0.0000 C.ar      1 AZU1        0.0000
     11 H6         -1.3730   -3.1220   -0.0000 H         1 AZU1        0.0000
     12 C7          0.7400   -3.0470   -0.0000 C.ar      1 AZU1        0.0000
     13 H7          0.7260   -4.1380   -0.0000 H         1 AZU1        0.0000
     14 C8          2.0150   -2.4740   -0.0000 C.ar      1 AZU1        0.0000
     15 H8          2.8510   -3.1770    0.0000 H         1 AZU1        0.0000
     16 C9          2.3630   -1.1210    0.0000 C.ar      1 AZU1        0.0000
     17 H9          3.4280   -0.8950    0.0000 H         1 AZU1        0.0000
     18 C10         1.5290   -0.0110    0.0000 C.ar      1 AZU1        0.0000
@<TRIPOS>BOND
     1    1    2 1 
     2    1    3 ar
     3    1   18 ar
     4    3    4 1 
     5    3    5 ar
     6    5    6 1 
     7    5    7 ar
     8    7    8 ar
     9    7   18 1 
    10    8    9 1 
    11    8   10 ar
    12   10   11 1 
    13   10   12 ar
    14   12   13 1 
    15   12   14 ar
    16   14   15 1 
    17   14   16 ar
    18   16   17 1 
    19   16   18 ar
