@<TRIPOS>MOLECULE
C:\Users\Praveer\PycharmProjects\pdb_to_mol2_converter\data\pdb\b12a.pdb
   38    39     0     0     0
SMALL
GASTEIGER

@<TRIPOS>ATOM
      1 N9          1.3900    0.0120   -0.0000 N.ar      1 B121        0.0000
      2 C8          1.7630    1.3450   -0.0080 C.ar      1 B121        0.0000
      3 H8          2.8130    1.6440   -0.0120 H         1 B121        0.0000
      4 N7          0.7390    2.1920   -0.0060 N.ar      1 B121        0.0000
      5 C5         -0.3760    1.3540   -0.0000 C.ar      1 B121        0.0000
      6 C6         -1.7410    1.6330    0.0080 C.3       1 B121        0.0000
      7 N1         -2.6080    0.5720    0.0160 N.2       1 B121        0.0000
      8 C2         -2.1350   -0.7030    0.0130 C.2       1 B121        0.0000
      9 N3         -0.8230   -1.0480    0.0130 N.pl3     1 B121        0.0000
     10 C4          0.0070    0.0050    0.0060 C.ar      1 B121        0.0000
     11 S2         -3.2620   -2.0420    0.0110 S.3       1 B121        0.0000
     12 C2M        -4.8220   -1.0840   -0.0640 C.3       1 B121        0.0000
     13 H21        -4.8740   -0.4470   -0.9750 H         1 B121        0.0000
     14 H22        -4.9470   -0.4240    0.8230 H         1 B121        0.0000
     15 H23        -5.6980   -1.7670   -0.0920 H         1 B121        0.0000
     16 N6         -2.0760    2.9870   -0.0410 N.am      1 B121        0.0000
     17 H6         -1.3100    3.5820   -0.2460 H         1 B121        0.0000
     18 C10        -3.3270    3.5130    0.0270 C.2       1 B121        0.0000
     19 O10        -4.3480    2.9200    0.3490 O.2       1 B121        0.0000
     20 N11        -3.3010    4.8160   -0.3580 N.am      1 B121        0.0000
     21 H11        -2.5310    5.0780   -0.9500 H         1 B121        0.0000
     22 C12        -4.4470    5.4620   -0.9840 C.3       1 B121        0.0000
     23 H12        -5.2680    4.7340   -1.1730 H         1 B121        0.0000
     24 C13        -3.9420    5.9680   -2.3570 C.2       1 B121        0.0000
     25 ODA        -4.7920    6.5460   -3.0840 O.co2     1 B121        0.0000
     26 ODB        -2.7180    5.7680   -2.5960 O.co2     1 B121        0.0000
     27 C14        -4.9950    6.6710   -0.2250 C.3       1 B121        0.0000
     28 H14        -4.2110    7.4600   -0.1490 H         1 B121        0.0000
     29 O14        -6.1360    7.2140   -0.8800 O.3       1 B121        0.0000
     30 H14O       -5.8490    7.1960   -1.8210 H         1 B121        0.0000
     31 C15        -5.4330    6.2630    1.1900 C.3       1 B121        0.0000
     32 H151       -4.5670    5.9000    1.7800 H         1 B121        0.0000
     33 H152       -6.1890    5.4520    1.1330 H         1 B121        0.0000
     34 H153       -5.8830    7.1320    1.7150 H         1 B121        0.0000
     35 CM          2.2680   -1.1690    0.0010 C.3       1 B121        0.0000
     36 HM1         3.3460   -0.8960    0.0000 H         1 B121        0.0000
     37 HM2         2.0680   -1.7970   -0.8950 H         1 B121        0.0000
     38 HM3         2.0690   -1.7950    0.9000 H         1 B121        0.0000
@<TRIPOS>BOND
     1   25   24 ar
     2   26   24 ar
     3   24   22 1 
     4   30   29 1 
     5   23   22 1 
     6   22   20 1 
     7   22   27 1 
     8   13   12 1 
     9   21   20 1 
    10   37   35 1 
    11   29   27 1 
    12   20   18 am
    13   17   16 1 
    14   27   28 1 
    15   27   31 1 
    16   15   12 1 
    17   12   11 1 
    18   12   14 1 
    19   16    6 1 
    20   16   18 am
    21    3    2 1 
    22    2    4 ar
    23    2    1 ar
    24    4    5 ar
    25    5   10 ar
    26    5    6 1 
    27   36   35 1 
    28    1   35 1 
    29    1   10 ar
    30   35   38 1 
    31   10    9 1 
    32    6    7 1 
    33   11    8 1 
    34    9    8 1 
    35    8    7 2 
    36   18   19 2 
    37   33   31 1 
    38   31   34 1 
    39   31   32 1 
