@<TRIPOS>MOLECULE
C:\Users\Praveer\PycharmProjects\pdb_to_mol2_converter\data\pdb\b13p.pdb
   32    32     0     0     0
SMALL
GASTEIGER

@<TRIPOS>ATOM
      1 C5          1.4270    0.0830    0.1330 C.ar      1 B131        0.0000
      2 C4          2.0690    1.3620   -0.0880 C.ar      1 B131        0.0000
      3 O4          3.2880    1.5020   -0.2530 O.2       1 B131        0.0000
      4 N3          1.2610    2.5040   -0.0360 N.ar      1 B131        0.0000
      5 C2         -0.0820    2.4550    0.3390 C.ar      1 B131        0.0000
      6 O2         -0.7740    3.4720    0.3740 O.2       1 B131        0.0000
      7 N1         -0.6210    1.1980    0.6730 N.ar      1 B131        0.0000
      8 C6          0.1230    0.0670    0.5450 C.ar      1 B131        0.0000
      9 H6         -0.3570   -0.8790    0.8110 H         1 B131        0.0000
     10 C1M        -2.0300    1.1420    1.1040 C.3       1 B131        0.0000
     11 H1M1       -2.7150    1.4920    0.2960 H         1 B131        0.0000
     12 H1M2       -2.1970    1.7960    1.9930 H         1 B131        0.0000
     13 H1M3       -2.3480    0.1130    1.3900 H         1 B131        0.0000
     14 C10         1.8540    3.8330   -0.2920 C.3       1 B131        0.0000
     15 H101        1.1250    4.4190   -0.9020 H         1 B131        0.0000
     16 H102        2.7620    3.7270   -0.9280 H         1 B131        0.0000
     17 C11         2.1690    4.6070    1.0030 C.3       1 B131        0.0000
     18 H111        1.1990    4.8730    1.4860 H         1 B131        0.0000
     19 H112        2.6570    5.5720    0.7420 H         1 B131        0.0000
     20 C12         3.0340    3.8500    2.0480 C.3       1 B131        0.0000
     21 H12         2.5270    2.9060    2.3410 H         1 B131        0.0000
     22 N14         4.3520    3.5040    1.4320 N.4       1 B131        0.0000
     23 H141        4.7390    4.3670    1.0070 H         1 B131        0.0000
     24 H142        4.2340    2.7440    0.7240 H         1 B131        0.0000
     25 H143        4.9770    3.2200    2.2160 H         1 B131        0.0000
     26 C13         3.1750    4.6730    3.3420 C.2       1 B131        0.0000
     27 O30         4.3450    4.9800    3.6950 O.co2     1 B131        0.0000
     28 O31         2.0960    4.9390    3.9250 O.co2     1 B131        0.0000
     29 CM          2.2190   -1.1870    0.0260 C.3       1 B131        0.0000
     30 HM1         3.0380   -1.2190    0.7790 H         1 B131        0.0000
     31 HM2         2.6860   -1.2750   -0.9810 H         1 B131        0.0000
     32 HM3         1.5820   -2.0870    0.1770 H         1 B131        0.0000
@<TRIPOS>BOND
     1   31   29 1 
     2   16   14 1 
     3   15   14 1 
     4   14    4 1 
     5   14   17 1 
     6    3    2 2 
     7    2    4 ar
     8    2    1 ar
     9    4    5 ar
    10   29    1 1 
    11   29   32 1 
    12   29   30 1 
    13    1    8 ar
    14   11   10 1 
    15    5    6 2 
    16    5    7 ar
    17    8    7 ar
    18    8    9 1 
    19    7   10 1 
    20   24   22 1 
    21   19   17 1 
    22   17   18 1 
    23   17   20 1 
    24   23   22 1 
    25   10   13 1 
    26   10   12 1 
    27   22   20 1 
    28   22   25 1 
    29   20   21 1 
    30   20   26 1 
    31   26   27 ar
    32   26   28 ar
