@<TRIPOS>MOLECULE
C:\Users\Praveer\PycharmProjects\pdb_to_mol2_converter\data\pdb\b1ma.pdb
   22    23     0     0     0
SMALL
GASTEIGER

@<TRIPOS>ATOM
      1 N9          1.3890    0.0110    0.0000 N.ar      1 B1M1        0.0000
      2 C8          1.7660    1.3430    0.0210 C.ar      1 B1M1        0.0000
      3 H8          2.8180    1.6420    0.0280 H         1 B1M1        0.0000
      4 N7          0.7390    2.1880    0.0320 N.ar      1 B1M1        0.0000
      5 C5         -0.3780    1.3620    0.0170 C.ar      1 B1M1        0.0000
      6 C6         -1.7390    1.6460    0.0180 C.2       1 B1M1        0.0000
      7 N6         -2.2240    2.9140    0.0350 N.pl3     1 B1M1        0.0000
      8 H61        -1.5560    3.6630    0.0480 H         1 B1M1        0.0000
      9 H62        -3.2010    3.1080    0.0350 H         1 B1M1        0.0000
     10 N1         -2.6310    0.5540   -0.0010 N.pl3     1 B1M1        0.0000
     11 C2         -2.1670   -0.7860   -0.0200 C.3       1 B1M1        0.0000
     12 H2         -2.9130   -1.5900   -0.0350 H         1 B1M1        0.0000
     13 N3         -0.8290   -1.0580   -0.0210 N.2       1 B1M1        0.0000
     14 C4          0.0040    0.0080   -0.0030 C.ar      1 B1M1        0.0000
     15 CM1        -4.0920    0.7760   -0.0020 C.3       1 B1M1        0.0000
     16 H11        -4.4110    1.3570   -0.8980 H         1 B1M1        0.0000
     17 H12        -4.4160    1.3310    0.9080 H         1 B1M1        0.0000
     18 H13        -4.6730   -0.1750   -0.0180 H         1 B1M1        0.0000
     19 CM          2.2650   -1.1730   -0.0160 C.3       1 B1M1        0.0000
     20 HM1         3.3450   -0.9010   -0.0200 H         1 B1M1        0.0000
     21 HM2         2.0690   -1.7940   -0.9190 H         1 B1M1        0.0000
     22 HM3         2.0790   -1.8110    0.8770 H         1 B1M1        0.0000
@<TRIPOS>BOND
     1   21   19 1 
     2   16   15 1 
     3   12   11 1 
     4   13   11 1 
     5   13   14 2 
     6   11   10 1 
     7   20   19 1 
     8   18   15 1 
     9   19    1 1 
    10   19   22 1 
    11   14    1 ar
    12   14    5 ar
    13   15   10 1 
    14   15   17 1 
    15   10    6 1 
    16    1    2 ar
    17    5    6 2 
    18    5    4 ar
    19    6    7 1 
    20    2    3 1 
    21    2    4 ar
    22    7    9 1 
    23    7    8 1 
