@<TRIPOS>MOLECULE
C:\Users\Praveer\PycharmProjects\pdb_to_mol2_converter\data\pdb\b1mg.pdb
   22    23     0     0     0
SMALL
GASTEIGER

@<TRIPOS>ATOM
      1 N9          1.4100   -0.0120   -0.0080 N.ar      1 B1M1        0.0000
      2 C8          1.7880    1.3130   -0.0210 C.ar      1 B1M1        0.0000
      3 H8          2.8360    1.6130   -0.0390 H         1 B1M1        0.0000
      4 N7          0.7650    2.1550   -0.0090 N.ar      1 B1M1        0.0000
      5 C5         -0.3600    1.3380    0.0140 C.ar      1 B1M1        0.0000
      6 C6         -1.7390    1.6640    0.0340 C.ar      1 B1M1        0.0000
      7 O6         -2.2280    2.8000    0.0390 O.2       1 B1M1        0.0000
      8 N1         -2.5920    0.5330    0.0460 N.ar      1 B1M1        0.0000
      9 C2         -2.1030   -0.7840    0.0550 C.ar      1 B1M1        0.0000
     10 N2         -2.9790   -1.7910    0.0860 N.pl3     1 B1M1        0.0000
     11 H21        -3.9580   -1.6300    0.1120 H         1 B1M1        0.0000
     12 H22        -2.6070   -2.7140    0.0900 H         1 B1M1        0.0000
     13 N3         -0.7960   -1.0690    0.0340 N.ar      1 B1M1        0.0000
     14 C4          0.0270   -0.0130    0.0140 C.ar      1 B1M1        0.0000
     15 CM1        -4.0630    0.7610    0.0750 C.3       1 B1M1        0.0000
     16 H11        -4.3480    1.8310   -0.0540 H         1 B1M1        0.0000
     17 H12        -4.5030    0.4370    1.0460 H         1 B1M1        0.0000
     18 H13        -4.5830    0.2140   -0.7450 H         1 B1M1        0.0000
     19 CM          2.2800   -1.1960   -0.0160 C.3       1 B1M1        0.0000
     20 HM1         3.3580   -0.9270   -0.0240 H         1 B1M1        0.0000
     21 HM2         2.0660   -1.8160   -0.9130 H         1 B1M1        0.0000
     22 HM3         2.0810   -1.8180    0.8840 H         1 B1M1        0.0000
@<TRIPOS>BOND
     1   21   19 1 
     2   18   15 1 
     3   16   15 1 
     4    3    2 1 
     5   20   19 1 
     6    2    4 ar
     7    2    1 ar
     8   19    1 1 
     9   19   22 1 
    10    4    5 ar
    11    1   14 ar
    12    5   14 ar
    13    5    6 ar
    14   14   13 ar
    15    6    7 2 
    16    6    8 ar
    17   13    9 ar
    18    8    9 ar
    19    8   15 1 
    20    9   10 1 
    21   15   17 1 
    22   10   12 1 
    23   10   11 1 
