@<TRIPOS>MOLECULE
C:\Users\Praveer\PycharmProjects\pdb_to_mol2_converter\data\pdb\b1mi.pdb
   20    21     0     0     0
SMALL
GASTEIGER

@<TRIPOS>ATOM
      1 N9          1.3890    0.0060   -0.0000 N.ar      1 B1M1        0.0000
      2 C8          1.7650    1.3330   -0.0000 C.ar      1 B1M1        0.0000
      3 H8          2.8130    1.6330   -0.0010 H         1 B1M1        0.0000
      4 N7          0.7410    2.1750   -0.0000 N.ar      1 B1M1        0.0000
      5 C5         -0.3850    1.3510    0.0000 C.ar      1 B1M1        0.0000
      6 C6         -1.7690    1.6610    0.0010 C.ar      1 B1M1        0.0000
      7 O6         -2.2960    2.7800    0.0010 O.2       1 B1M1        0.0000
      8 N1         -2.6010    0.5220    0.0010 N.ar      1 B1M1        0.0000
      9 C2         -2.1390   -0.7980    0.0010 C.ar      1 B1M1        0.0000
     10 H2         -2.8430   -1.6310    0.0010 H         1 B1M1        0.0000
     11 N3         -0.8100   -1.0640    0.0010 N.ar      1 B1M1        0.0000
     12 C4          0.0080    0.0010    0.0000 C.ar      1 B1M1        0.0000
     13 C1M        -4.0640    0.7470    0.0010 C.3       1 B1M1        0.0000
     14 H11        -4.3770    1.3380   -0.8920 H         1 B1M1        0.0000
     15 H12        -4.3770    1.3330    0.8980 H         1 B1M1        0.0000
     16 H13        -4.6640   -0.1910   -0.0010 H         1 B1M1        0.0000
     17 CM          2.2620   -1.1770   -0.0000 C.3       1 B1M1        0.0000
     18 HM1         3.3410   -0.9060   -0.0010 H         1 B1M1        0.0000
     19 HM2         2.0590   -1.8000   -0.8980 H         1 B1M1        0.0000
     20 HM3         2.0600   -1.8000    0.8980 H         1 B1M1        0.0000
@<TRIPOS>BOND
     1   19   17 1 
     2   14   13 1 
     3    3    2 1 
     4   16   13 1 
     5   18   17 1 
     6    1    2 ar
     7    1   12 ar
     8    1   17 1 
     9    2    4 ar
    10    4    5 ar
    11    5   12 ar
    12    5    6 ar
    13   12   11 ar
    14   17   20 1 
    15    6    7 2 
    16    6    8 ar
    17    8    9 ar
    18    8   13 1 
    19    9   10 1 
    20    9   11 ar
    21   13   15 1 
