@<TRIPOS>MOLECULE
C:\Users\Praveer\PycharmProjects\pdb_to_mol2_converter\data\pdb\b1mp.pdb
   18    18     0     0     0
SMALL
GASTEIGER

@<TRIPOS>ATOM
      1 C5          1.3770    0.0020    0.0020 C.ar      1 B1M1        0.0000
      2 C4          2.0580    1.2820    0.0000 C.ar      1 B1M1        0.0000
      3 O4          3.2710    1.4540   -0.0900 O.2       1 B1M1        0.0000
      4 N3          1.2550    2.3920    0.1170 N.ar      1 B1M1        0.0000
      5 H3          1.7140    3.2810    0.1240 H         1 B1M1        0.0000
      6 C2         -0.1110    2.3960    0.1580 C.ar      1 B1M1        0.0000
      7 O2         -0.7330    3.4520    0.2370 O.2       1 B1M1        0.0000
      8 N1         -0.7460    1.1470    0.0950 N.ar      1 B1M1        0.0000
      9 C6          0.0020    0.0020    0.0050 C.ar      1 B1M1        0.0000
     10 H6         -0.5420   -0.9400   -0.0780 H         1 B1M1        0.0000
     11 C1         -2.2180    1.1290    0.1190 C.3       1 B1M1        0.0000
     12 H11        -2.6390    1.7060   -0.7380 H         1 B1M1        0.0000
     13 H12        -2.6080    1.5960    1.0540 H         1 B1M1        0.0000
     14 H13        -2.6330    0.0980    0.0630 H         1 B1M1        0.0000
     15 CM          2.1640   -1.2600   -0.1920 C.3       1 B1M1        0.0000
     16 HM1         3.1710   -1.1790    0.2780 H         1 B1M1        0.0000
     17 HM2         2.3160   -1.4680   -1.2750 H         1 B1M1        0.0000
     18 HM3         1.6540   -2.1380    0.2620 H         1 B1M1        0.0000
@<TRIPOS>BOND
     1   17   15 1 
     2   12   11 1 
     3   15    1 1 
     4   15   18 1 
     5   15   16 1 
     6    3    2 2 
     7   10    9 1 
     8    2    1 ar
     9    2    4 ar
    10    1    9 ar
    11    9    8 ar
    12   14   11 1 
    13    8   11 1 
    14    8    6 ar
    15    4    5 1 
    16    4    6 ar
    17   11   13 1 
    18    6    7 2 
