@<TRIPOS>MOLECULE
C:\Users\Praveer\PycharmProjects\pdb_to_mol2_converter\data\pdb\b1pc.pdb
   16    16     0     0     0
SMALL
GASTEIGER

@<TRIPOS>ATOM
      1 N1          1.3560   -0.0040    0.0570 N.ar      1 B1P1        0.0000
      2 H1          1.9170   -0.8320    0.1210 H         1 B1P1        0.0000
      3 C2          2.0290    1.1990   -0.0140 C.ar      1 B1P1        0.0000
      4 N2          3.3560    1.1430   -0.0160 N.pl3     1 B1P1        0.0000
      5 H21         3.8750    0.2980    0.0280 H         1 B1P1        0.0000
      6 H22         3.8280    2.0180   -0.0700 H         1 B1P1        0.0000
      7 N3          1.3980    2.3640   -0.0750 N.ar      1 B1P1        0.0000
      8 C4          0.0360    2.4160   -0.0510 C.ar      1 B1P1        0.0000
      9 O4         -0.5380    3.5040   -0.0120 O.2       1 B1P1        0.0000
     10 C5         -0.7150    1.1660   -0.0870 C.ar      1 B1P1        0.0000
     11 C6         -0.0020    0.0040    0.0360 C.ar      1 B1P1        0.0000
     12 H6         -0.5200   -0.9530    0.1190 H         1 B1P1        0.0000
     13 CM         -2.2170    1.1730   -0.0240 C.3       1 B1P1        0.0000
     14 HM1        -2.6310    2.0350   -0.5960 H         1 B1P1        0.0000
     15 HM2        -2.5640    1.2710    1.0290 H         1 B1P1        0.0000
     16 HM3        -2.6510    0.2450   -0.4530 H         1 B1P1        0.0000
@<TRIPOS>BOND
     1   14   13 1 
     2   16   13 1 
     3   10    8 ar
     4   10   13 1 
     5   10   11 ar
     6    7    8 ar
     7    7    3 ar
     8    6    4 1 
     9    8    9 2 
    10   13   15 1 
    11    4    3 1 
    12    4    5 1 
    13    3    1 ar
    14   11    1 ar
    15   11   12 1 
    16    1    2 1 
