@<TRIPOS>MOLECULE
C:\Users\Praveer\PycharmProjects\pdb_to_mol2_converter\data\pdb\b26a.pdb
   41    42     0     0     0
SMALL
GASTEIGER

@<TRIPOS>ATOM
      1 N9          1.3770    0.0180    0.0100 N.ar      1 B261        0.0000
      2 C8          1.7500    1.3510    0.0010 C.ar      1 B261        0.0000
      3 H8          2.8000    1.6510   -0.0050 H         1 B261        0.0000
      4 N7          0.7280    2.1980    0.0010 N.ar      1 B261        0.0000
      5 C5         -0.3870    1.3600    0.0080 C.ar      1 B261        0.0000
      6 C6         -1.7520    1.6400    0.0080 C.3       1 B261        0.0000
      7 N1         -2.6210    0.5810    0.0140 N.2       1 B261        0.0000
      8 C2         -2.1480   -0.6940    0.0140 C.2       1 B261        0.0000
      9 N3         -0.8360   -1.0420    0.0210 N.pl3     1 B261        0.0000
     10 C4         -0.0060    0.0110    0.0150 C.ar      1 B261        0.0000
     11 S2         -3.2710   -2.0370    0.0080 S.3       1 B261        0.0000
     12 C2M        -4.8350   -1.0880   -0.0880 C.3       1 B261        0.0000
     13 H21        -4.8760   -0.4460   -0.9960 H         1 B261        0.0000
     14 H22        -4.9770   -0.4330    0.8000 H         1 B261        0.0000
     15 H23        -5.7060   -1.7760   -0.1330 H         1 B261        0.0000
     16 N6         -2.0760    2.9960   -0.0530 N.am      1 B261        0.0000
     17 H6         -1.3000    3.5830   -0.2410 H         1 B261        0.0000
     18 C10        -3.3230    3.5350   -0.0160 C.2       1 B261        0.0000
     19 O10        -4.3580    2.9590    0.2960 O.2       1 B261        0.0000
     20 N11        -3.2720    4.8280   -0.4320 N.am      1 B261        0.0000
     21 H11        -2.4620    5.0940   -0.9570 H         1 B261        0.0000
     22 C12        -4.3870    5.4680   -1.1140 C.3       1 B261        0.0000
     23 H12        -5.3020    4.8370   -1.0840 H         1 B261        0.0000
     24 C13        -3.9410    5.5950   -2.5830 C.2       1 B261        0.0000
     25 ODA        -4.8270    5.4590   -3.4630 O.co2     1 B261        0.0000
     26 ODB        -2.7070    5.8160   -2.7460 O.co2     1 B261        0.0000
     27 C14        -4.7120    6.8680   -0.5900 C.3       1 B261        0.0000
     28 H14        -3.8160    7.5190   -0.7180 H         1 B261        0.0000
     29 O14        -5.0160    6.8190    0.8030 O.3       1 B261        0.0000
     30 H14O       -5.7740    6.2350    0.8660 H         1 B261        0.0000
     31 C15        -5.9140    7.5240   -1.3200 C.3       1 B261        0.0000
     32 H151       -6.8010    6.8620   -1.2240 H         1 B261        0.0000
     33 H152       -5.6760    7.5910   -2.4060 H         1 B261        0.0000
     34 C16        -6.2610    8.9390   -0.8260 C.3       1 B261        0.0000
     35 H161       -5.3830    9.6100   -0.9440 H         1 B261        0.0000
     36 H162       -6.5460    8.9210    0.2480 H         1 B261        0.0000
     37 H163       -7.1060    9.3570   -1.4130 H         1 B261        0.0000
     38 CM          2.2550   -1.1620    0.0110 C.3       1 B261        0.0000
     39 HM1         3.3330   -0.8870    0.0120 H         1 B261        0.0000
     40 HM2         2.0560   -1.7880   -0.8870 H         1 B261        0.0000
     41 HM3         2.0540   -1.7880    0.9090 H         1 B261        0.0000
@<TRIPOS>BOND
     1   25   24 ar
     2   26   24 ar
     3   24   22 1 
     4   33   31 1 
     5   37   34 1 
     6   31   32 1 
     7   31   34 1 
     8   31   27 1 
     9   22   23 1 
    10   22   27 1 
    11   22   20 1 
    12   13   12 1 
    13   21   20 1 
    14   35   34 1 
    15   40   38 1 
    16   34   36 1 
    17   28   27 1 
    18   27   29 1 
    19   20   18 am
    20   17   16 1 
    21   15   12 1 
    22   12   11 1 
    23   12   14 1 
    24   16   18 am
    25   16    6 1 
    26   18   19 2 
    27    3    2 1 
    28    2    4 ar
    29    2    1 ar
    30    4    5 ar
    31    5    6 1 
    32    5   10 ar
    33    6    7 1 
    34   11    8 1 
    35    1   38 1 
    36    1   10 ar
    37   38   39 1 
    38   38   41 1 
    39    8    7 2 
    40    8    9 1 
    41   10    9 1 
    42   29   30 1 
