@<TRIPOS>MOLECULE
C:\Users\Praveer\PycharmProjects\pdb_to_mol2_converter\data\pdb\b27g.pdb
   26    27     0     0     0
SMALL
GASTEIGER

@<TRIPOS>ATOM
      1 N9          1.3210   -0.0210    0.0900 N.pl3     1 B271        0.0000
      2 C8          1.7680    1.2310    0.1870 C.3       1 B271        0.0000
      3 H8          2.7980    1.4900    0.3410 H         1 B271        0.0000
      4 N7          0.7540    2.0880    0.0610 N.3       1 B271        0.0000
      5 C5         -0.4140    1.3490   -0.1270 C.3       1 B271        0.0000
      6 C6         -1.7630    1.7300   -0.3220 C.2       1 B271        0.0000
      7 O6         -2.2510    2.8560   -0.3580 O.2       1 B271        0.0000
      8 N1         -2.5950    0.6310   -0.4800 N.am      1 B271        0.0000
      9 H1         -3.5690    0.8240   -0.6320 H         1 B271        0.0000
     10 C2         -2.2040   -0.7000   -0.4760 C.3       1 B271        0.0000
     11 N3         -0.9000   -1.0220   -0.2850 N.2       1 B271        0.0000
     12 C4         -0.0470    0.0050   -0.1150 C.2       1 B271        0.0000
     13 C7          0.8440    3.5620    0.0730 C.3       1 B271        0.0000
     14 H71         0.3300    3.9530   -0.8340 H         1 B271        0.0000
     15 H72         1.9070    3.8900    0.0640 H         1 B271        0.0000
     16 H73         0.3350    3.9570    0.9800 H         1 B271        0.0000
     17 N2         -3.1060   -1.6880   -0.6760 N.3       1 B271        0.0000
     18 H2         -2.6350   -2.5890   -0.5750 H         1 B271        0.0000
     19 C10        -4.3830   -1.7310    0.0810 C.3       1 B271        0.0000
     20 H11        -4.9840   -0.8050   -0.0700 H         1 B271        0.0000
     21 H12        -4.2180   -1.8700    1.1730 H         1 B271        0.0000
     22 H13        -5.0070   -2.5820   -0.2740 H         1 B271        0.0000
     23 CM          2.1570   -1.2340    0.1800 C.3       1 B271        0.0000
     24 HM1         1.8750   -1.7950    1.0990 H         1 B271        0.0000
     25 HM2         3.2380   -0.9700    0.2210 H         1 B271        0.0000
     26 HM3         1.9670   -1.8720   -0.7120 H         1 B271        0.0000
@<TRIPOS>BOND
     1   14   13 1 
     2   26   23 1 
     3   17   18 1 
     4   17   10 1 
     5   17   19 1 
     6    9    8 1 
     7    8   10 1 
     8    8    6 am
     9   10   11 1 
    10    7    6 2 
    11    6    5 1 
    12   11   12 2 
    13   22   19 1 
    14    5   12 1 
    15    5    4 1 
    16   12    1 1 
    17   20   19 1 
    18    4   13 1 
    19    4    2 1 
    20   15   13 1 
    21   13   16 1 
    22   19   21 1 
    23    1   23 1 
    24    1    2 1 
    25   23   25 1 
    26   23   24 1 
    27    2    3 1 
