@<TRIPOS>MOLECULE
C:\Users\Praveer\PycharmProjects\pdb_to_mol2_converter\data\pdb\b2fo.pdb
   10    10     0     0     0
SMALL
GASTEIGER

@<TRIPOS>ATOM
      1 O1          0.0270    0.0450   -0.0000 O.3       1 B2F1        0.0000
      2 C2          1.3960    0.0250    0.0000 C.2       1 B2F1        0.0000
      3 C3          1.7950    1.4550   -0.0000 C.2       1 B2F1        0.0000
      4 H3          2.8530    1.6550   -0.0000 H         1 B2F1        0.0000
      5 C4          0.7360    2.2860   -0.0000 C.2       1 B2F1        0.0000
      6 H4          0.7330    3.3660   -0.0000 H         1 B2F1        0.0000
      7 C5         -0.4840    1.3940    0.0000 C.3       1 B2F1        0.0000
      8 H51        -1.1230    1.5120    0.8910 H         1 B2F1        0.0000
      9 H52        -1.1230    1.5120   -0.8910 H         1 B2F1        0.0000
     10 O6          2.1450   -0.9510    0.0000 O.2       1 B2F1        0.0000
@<TRIPOS>BOND
     1    9    7 1 
     2    1    2 1 
     3    1    7 1 
     4    2    3 1 
     5    2   10 2 
     6    3    4 1 
     7    3    5 2 
     8    5    6 1 
     9    5    7 1 
    10    7    8 1 
