@<TRIPOS>MOLECULE
C:\Users\Praveer\PycharmProjects\pdb_to_mol2_converter\data\pdb\b2ma.pdb
   21    22     0     0     0
SMALL
GASTEIGER

@<TRIPOS>ATOM
      1 N9          1.3850    0.0130    0.0030 N.ar      1 B2M1        0.0000
      2 C8          1.7660    1.3420    0.0110 C.ar      1 B2M1        0.0000
      3 H8          2.8180    1.6340    0.0180 H         1 B2M1        0.0000
      4 N7          0.7530    2.1990    0.0090 N.ar      1 B2M1        0.0000
      5 C5         -0.3750    1.3600   -0.0000 C.ar      1 B2M1        0.0000
      6 C6         -1.7630    1.6120   -0.0080 C.3       1 B2M1        0.0000
      7 N6         -2.3100    2.8410   -0.0070 N.3       1 B2M1        0.0000
      8 H61        -1.7420    3.6600   -0.0010 H         1 B2M1        0.0000
      9 H62        -3.3040    2.8940   -0.0140 H         1 B2M1        0.0000
     10 N1         -2.6210    0.5570   -0.0170 N.2       1 B2M1        0.0000
     11 C2         -2.1350   -0.7070   -0.0230 C.2       1 B2M1        0.0000
     12 N3         -0.8290   -1.0440   -0.0110 N.pl3     1 B2M1        0.0000
     13 C4          0.0010    0.0130   -0.0040 C.ar      1 B2M1        0.0000
     14 CM2        -3.1230   -1.8340   -0.0260 C.3       1 B2M1        0.0000
     15 H21        -4.1590   -1.4670   -0.1830 H         1 B2M1        0.0000
     16 H22        -3.0830   -2.3710    0.9440 H         1 B2M1        0.0000
     17 H23        -2.8800   -2.5520   -0.8380 H         1 B2M1        0.0000
     18 CM          2.2570   -1.1740    0.0030 C.3       1 B2M1        0.0000
     19 HM1         3.3370   -0.9080    0.0080 H         1 B2M1        0.0000
     20 HM2         2.0560   -1.7960   -0.8980 H         1 B2M1        0.0000
     21 HM3         2.0500   -1.8020    0.8970 H         1 B2M1        0.0000
@<TRIPOS>BOND
     1   20   18 1 
     2   17   14 1 
     3   15   14 1 
     4   14   11 1 
     5   14   16 1 
     6   11   10 2 
     7   11   12 1 
     8   10    6 1 
     9    9    7 1 
    10   12   13 1 
    11    6    7 1 
    12    6    5 1 
    13    7    8 1 
    14   13    5 ar
    15   13    1 ar
    16    5    4 ar
    17    1   18 1 
    18    1    2 ar
    19   18   19 1 
    20   18   21 1 
    21    4    2 ar
    22    2    3 1 
