@<TRIPOS>MOLECULE
C:\Users\Praveer\PycharmProjects\pdb_to_mol2_converter\data\pdb\b2mg.pdb
   22    23     0     0     0
SMALL
GASTEIGER

@<TRIPOS>ATOM
      1 N9          1.3480   -0.0000    0.0130 N.ar      1 B2M1        0.0000
      2 C8          1.7250    1.3260    0.0400 C.ar      1 B2M1        0.0000
      3 H8          2.7740    1.6230    0.0620 H         1 B2M1        0.0000
      4 N7          0.7050    2.1720    0.0350 N.ar      1 B2M1        0.0000
      5 C5         -0.4180    1.3550    0.0010 C.ar      1 B2M1        0.0000
      6 C6         -1.7980    1.6710   -0.0550 C.ar      1 B2M1        0.0000
      7 O6         -2.3670    2.7630   -0.0620 O.2       1 B2M1        0.0000
      8 N1         -2.5970    0.5450   -0.1150 N.ar      1 B2M1        0.0000
      9 H1         -3.5740    0.7250   -0.2000 H         1 B2M1        0.0000
     10 C4         -0.0310   -0.0010   -0.0020 C.ar      1 B2M1        0.0000
     11 C2         -2.1740   -0.7670   -0.1090 C.ar      1 B2M1        0.0000
     12 N2         -3.0520   -1.7940   -0.1450 N.pl3     1 B2M1        0.0000
     13 H2         -2.5330   -2.6240    0.1350 H         1 B2M1        0.0000
     14 N3         -0.8660   -1.0590   -0.0230 N.ar      1 B2M1        0.0000
     15 CM2        -4.3150   -1.7450    0.6230 C.3       1 B2M1        0.0000
     16 H21        -5.0020   -0.9710    0.2130 H         1 B2M1        0.0000
     17 H22        -4.1350   -1.5240    1.6990 H         1 B2M1        0.0000
     18 H23        -4.8450   -2.7220    0.5540 H         1 B2M1        0.0000
     19 CM          2.2140   -1.1860   -0.0040 C.3       1 B2M1        0.0000
     20 HM1         3.2940   -0.9200   -0.0070 H         1 B2M1        0.0000
     21 HM2         2.0030   -1.7900   -0.9130 H         1 B2M1        0.0000
     22 HM3         2.0100   -1.8230    0.8830 H         1 B2M1        0.0000
@<TRIPOS>BOND
     1   21   19 1 
     2    9    8 1 
     3   12   11 1 
     4   12   13 1 
     5   12   15 1 
     6    8   11 ar
     7    8    6 ar
     8   11   14 ar
     9    7    6 2 
    10    6    5 ar
    11   14   10 ar
    12   20   19 1 
    13   19    1 1 
    14   19   22 1 
    15   10    5 ar
    16   10    1 ar
    17    5    4 ar
    18    1    2 ar
    19    4    2 ar
    20    2    3 1 
    21   16   15 1 
    22   18   15 1 
    23   15   17 1 
