@<TRIPOS>MOLECULE
C:\Users\Praveer\PycharmProjects\pdb_to_mol2_converter\data\pdb\b2sc.pdb
   16    16     0     0     0
SMALL
GASTEIGER

@<TRIPOS>ATOM
      1 N1          1.5520    0.1560   -0.1760 N.ar      1 B2S1        0.0000
      2 C2          1.9750    1.4900   -0.4790 C.ar      1 B2S1        0.0000
      3 S2          3.4350    2.1010    0.0120 S.2       1 B2S1        0.0000
      4 N3          1.1320    2.2850   -1.2050 N.ar      1 B2S1        0.0000
      5 C4         -0.0650    1.8430   -1.6060 C.ar      1 B2S1        0.0000
      6 N4         -0.8100    2.6920   -2.3100 N.pl3     1 B2S1        0.0000
      7 H41        -0.3850    3.5770   -2.4740 H         1 B2S1        0.0000
      8 H42        -1.7180    2.4880   -2.6530 H         1 B2S1        0.0000
      9 C5         -0.5490    0.5800   -1.3300 C.ar      1 B2S1        0.0000
     10 H5         -1.5210    0.2740   -1.6710 H         1 B2S1        0.0000
     11 C6          0.2850   -0.2790   -0.5970 C.ar      1 B2S1        0.0000
     12 H6          0.0040   -1.2890   -0.3420 H         1 B2S1        0.0000
     13 CM          2.4390   -0.7300    0.5990 C.3       1 B2S1        0.0000
     14 HM1         2.6210   -0.3190    1.6190 H         1 B2S1        0.0000
     15 HM2         3.4290   -0.8430    0.0990 H         1 B2S1        0.0000
     16 HM3         2.0210   -1.7540    0.7250 H         1 B2S1        0.0000
@<TRIPOS>BOND
     1    8    6 1 
     2    7    6 1 
     3    6    5 1 
     4   10    9 1 
     5    5    9 ar
     6    5    4 ar
     7    9   11 ar
     8    4    2 ar
     9   11   12 1 
    10   11    1 ar
    11    2    1 ar
    12    2    3 2 
    13    1   13 1 
    14   15   13 1 
    15   13   16 1 
    16   13   14 1 
