@<TRIPOS>MOLECULE
C:\Users\Praveer\PycharmProjects\pdb_to_mol2_converter\data\pdb\b2su.pdb
   15    15     0     0     0
SMALL
GASTEIGER

@<TRIPOS>ATOM
      1 N1          1.3680    0.0020    0.0010 N.ar      1 B2S1        0.0000
      2 C2          2.1020    1.2160    0.0000 C.ar      1 B2S1        0.0000
      3 S2          3.7490    1.3650    0.0010 S.2       1 B2S1        0.0000
      4 N3          1.3020    2.3470   -0.0010 N.ar      1 B2S1        0.0000
      5 H3          1.7570    3.2410   -0.0010 H         1 B2S1        0.0000
      6 C4         -0.0720    2.4090   -0.0020 C.ar      1 B2S1        0.0000
      7 O4         -0.6140    3.5090   -0.0030 O.2       1 B2S1        0.0000
      8 C5         -0.7440    1.1580   -0.0010 C.ar      1 B2S1        0.0000
      9 H5         -1.8290    1.1400   -0.0020 H         1 B2S1        0.0000
     10 C6         -0.0040    0.0040    0.0000 C.ar      1 B2S1        0.0000
     11 H6         -0.4840   -0.9760    0.0010 H         1 B2S1        0.0000
     12 CM          2.1150   -1.2680    0.0020 C.3       1 B2S1        0.0000
     13 HM1         2.7690   -1.3500    0.9020 H         1 B2S1        0.0000
     14 HM2         2.7700   -1.3520   -0.8960 H         1 B2S1        0.0000
     15 HM3         1.4480   -2.1600    0.0030 H         1 B2S1        0.0000
@<TRIPOS>BOND
     1   14   12 1 
     2    7    6 2 
     3    6    4 ar
     4    6    8 ar
     5    9    8 1 
     6    4    5 1 
     7    4    2 ar
     8    8   10 ar
     9    2    1 ar
    10    2    3 2 
    11   10    1 ar
    12   10   11 1 
    13    1   12 1 
    14   12   15 1 
    15   12   13 1 
