@<TRIPOS>MOLECULE
C:\Users\Praveer\PycharmProjects\pdb_to_mol2_converter\data\pdb\b3au.pdb
   29    29     0     0     0
SMALL
GASTEIGER

@<TRIPOS>ATOM
      1 N1          1.3490    0.0030   -0.0020 N.ar      1 B3A1        0.0000
      2 C2          2.0540    1.2220   -0.0100 C.ar      1 B3A1        0.0000
      3 O2          3.2860    1.2500   -0.0340 O.2       1 B3A1        0.0000
      4 N3          1.2920    2.3990    0.0130 N.ar      1 B3A1        0.0000
      5 C4         -0.1100    2.4120   -0.0030 C.ar      1 B3A1        0.0000
      6 O4         -0.7110    3.4880   -0.0570 O.2       1 B3A1        0.0000
      7 C5         -0.7630    1.1440    0.0260 C.ar      1 B3A1        0.0000
      8 H5         -1.8500    1.0840    0.0190 H         1 B3A1        0.0000
      9 C6         -0.0120    0.0030    0.0190 C.ar      1 B3A1        0.0000
     10 H6         -0.4940   -0.9760    0.0210 H         1 B3A1        0.0000
     11 C10         2.0020    3.6930   -0.0060 C.3       1 B3A1        0.0000
     12 H101        2.9970    3.5670    0.4810 H         1 B3A1        0.0000
     13 H102        1.4440    4.4020    0.6460 H         1 B3A1        0.0000
     14 C11         2.1900    4.2660   -1.4260 C.3       1 B3A1        0.0000
     15 H111        1.7300    3.6060   -2.1940 H         1 B3A1        0.0000
     16 H112        3.2850    4.2670   -1.6400 H         1 B3A1        0.0000
     17 C12         1.6540    5.7130   -1.6120 C.3       1 B3A1        0.0000
     18 H12         2.1180    6.3800   -0.8530 H         1 B3A1        0.0000
     19 N14         0.1710    5.7210   -1.4270 N.4       1 B3A1        0.0000
     20 H141       -0.1530    4.8800   -0.8950 H         1 B3A1        0.0000
     21 H142       -0.1960    5.7000   -2.4080 H         1 B3A1        0.0000
     22 H143       -0.1390    6.6010   -0.9800 H         1 B3A1        0.0000
     23 C13         2.0410    6.2520   -3.0060 C.2       1 B3A1        0.0000
     24 O30         1.0950    6.5330   -3.7910 O.co2     1 B3A1        0.0000
     25 O31         3.2740    6.3580   -3.2120 O.co2     1 B3A1        0.0000
     26 CM          2.1210   -1.2550   -0.0180 C.3       1 B3A1        0.0000
     27 HM1         2.7980   -1.3200    0.8660 H         1 B3A1        0.0000
     28 HM2         2.7660   -1.3180   -0.9260 H         1 B3A1        0.0000
     29 HM3         1.4740   -2.1610   -0.0080 H         1 B3A1        0.0000
@<TRIPOS>BOND
     1   24   23 ar
     2   25   23 ar
     3   23   17 1 
     4   21   19 1 
     5   15   14 1 
     6   16   14 1 
     7   17   19 1 
     8   17   14 1 
     9   17   18 1 
    10   19   22 1 
    11   19   20 1 
    12   14   11 1 
    13   28   26 1 
    14    6    5 2 
    15    3    2 2 
    16   26   29 1 
    17   26    1 1 
    18   26   27 1 
    19    2    1 ar
    20    2    4 ar
    21   11    4 1 
    22   11   12 1 
    23   11   13 1 
    24    5    4 ar
    25    5    7 ar
    26    1    9 ar
    27    8    7 1 
    28    9   10 1 
    29    9    7 ar
