@<TRIPOS>MOLECULE
C:\Users\Praveer\PycharmProjects\pdb_to_mol2_converter\data\pdb\b3mc.pdb
   20    20     0     0     0
SMALL
GASTEIGER

@<TRIPOS>ATOM
      1 N1          1.3580   -0.0000   -0.0000 N.am      1 B3M1        0.0000
      2 C2          2.0810    1.2240    0.0020 C.2       1 B3M1        0.0000
      3 O2          3.3130    1.1940   -0.0000 O.2       1 B3M1        0.0000
      4 N3          1.3110    2.4330    0.0060 N.am      1 B3M1        0.0000
      5 C4         -0.0610    2.3990    0.0080 C.2       1 B3M1        0.0000
      6 N4         -0.7520    3.5560    0.0150 N.pl3     1 B3M1        0.0000
      7 H41        -0.2720    4.4290    0.0180 H         1 B3M1        0.0000
      8 H42        -1.7510    3.5440    0.0170 H         1 B3M1        0.0000
      9 C5         -0.7410    1.1590    0.0050 C.2       1 B3M1        0.0000
     10 H5         -1.8300    1.1160    0.0060 H         1 B3M1        0.0000
     11 C6         -0.0090    0.0020    0.0010 C.3       1 B3M1        0.0000
     12 H6         -0.4950   -0.9790   -0.0010 H         1 B3M1        0.0000
     13 CN3         2.0600    3.7140    0.0070 C.3       1 B3M1        0.0000
     14 H31         3.1670    3.5770    0.0040 H         1 B3M1        0.0000
     15 H32         1.8250    4.3200    0.9130 H         1 B3M1        0.0000
     16 H33         1.8210    4.3250   -0.8930 H         1 B3M1        0.0000
     17 CM          2.1130   -1.2660   -0.0050 C.3       1 B3M1        0.0000
     18 HM1         2.7740   -1.3450    0.8910 H         1 B3M1        0.0000
     19 HM2         2.7700   -1.3420   -0.9040 H         1 B3M1        0.0000
     20 HM3         1.4550   -2.1640   -0.0040 H         1 B3M1        0.0000
@<TRIPOS>BOND
     1   19   17 1 
     2   16   13 1 
     3   17   20 1 
     4   17    1 1 
     5   17   18 1 
     6   12   11 1 
     7    1   11 1 
     8    1    2 am
     9    3    2 2 
    10   11    9 1 
    11    2    4 am
    12   14   13 1 
    13    9   10 1 
    14    9    5 2 
    15    4   13 1 
    16    4    5 1 
    17   13   15 1 
    18    5    6 1 
    19    6    8 1 
    20    6    7 1 
