@<TRIPOS>MOLECULE
C:\Users\Praveer\PycharmProjects\pdb_to_mol2_converter\data\pdb\b3mp.pdb
   18    18     0     0     0
SMALL
GASTEIGER

@<TRIPOS>ATOM
      1 C5          1.3880   -0.0070    0.0100 C.ar      1 B3M1        0.0000
      2 C4          2.0790    1.2730   -0.0060 C.ar      1 B3M1        0.0000
      3 O4          3.3000    1.4020   -0.1260 O.2       1 B3M1        0.0000
      4 N3          1.2770    2.4190    0.1340 N.ar      1 B3M1        0.0000
      5 C2         -0.1140    2.3800    0.1510 C.ar      1 B3M1        0.0000
      6 O2         -0.8050    3.3960    0.1880 O.2       1 B3M1        0.0000
      7 N1         -0.7130    1.1370    0.1080 N.ar      1 B3M1        0.0000
      8 H1         -1.7190    1.1750    0.1100 H         1 B3M1        0.0000
      9 C6          0.0170   -0.0100    0.0160 C.ar      1 B3M1        0.0000
     10 H6         -0.5260   -0.9570   -0.0570 H         1 B3M1        0.0000
     11 C3          1.9400    3.7420    0.1380 C.3       1 B3M1        0.0000
     12 H31         2.1470    4.0850   -0.9010 H         1 B3M1        0.0000
     13 H32         2.9130    3.7200    0.6820 H         1 B3M1        0.0000
     14 H33         1.3240    4.5290    0.6310 H         1 B3M1        0.0000
     15 CM          2.1550   -1.2810   -0.1910 C.3       1 B3M1        0.0000
     16 HM1         3.1670   -1.2170    0.2710 H         1 B3M1        0.0000
     17 HM2         2.2930   -1.4920   -1.2750 H         1 B3M1        0.0000
     18 HM3         1.6340   -2.1510    0.2670 H         1 B3M1        0.0000
@<TRIPOS>BOND
     1   17   15 1 
     2   12   11 1 
     3   15    1 1 
     4   15   18 1 
     5   15   16 1 
     6    3    2 2 
     7   10    9 1 
     8    2    1 ar
     9    2    4 ar
    10    1    9 ar
    11    9    7 ar
    12    7    8 1 
    13    7    5 ar
    14    4   11 1 
    15    4    5 ar
    16   11   14 1 
    17   11   13 1 
    18    5    6 2 
