@<TRIPOS>MOLECULE
C:\Users\Praveer\PycharmProjects\pdb_to_mol2_converter\data\pdb\b3mu.pdb
   18    18     0     0     0
SMALL
GASTEIGER

@<TRIPOS>ATOM
      1 N1          1.3550   -0.0020    0.0020 N.ar      1 B3M1        0.0000
      2 C2          2.0570    1.2190    0.0000 C.ar      1 B3M1        0.0000
      3 O2          3.2900    1.2510   -0.0320 O.2       1 B3M1        0.0000
      4 N3          1.2930    2.3920    0.0320 N.ar      1 B3M1        0.0000
      5 C4         -0.1100    2.4080   -0.0010 C.ar      1 B3M1        0.0000
      6 O4         -0.7150    3.4790   -0.0400 O.2       1 B3M1        0.0000
      7 C5         -0.7610    1.1370    0.0100 C.ar      1 B3M1        0.0000
      8 H5         -1.8470    1.0790   -0.0040 H         1 B3M1        0.0000
      9 C6         -0.0080   -0.0020    0.0040 C.ar      1 B3M1        0.0000
     10 H6         -0.4890   -0.9810   -0.0020 H         1 B3M1        0.0000
     11 C3U         2.0060    3.6890    0.0110 C.3       1 B3M1        0.0000
     12 H31         2.1570    4.0400   -1.0360 H         1 B3M1        0.0000
     13 H32         3.0090    3.6320    0.4920 H         1 B3M1        0.0000
     14 H33         1.4450    4.4860    0.5510 H         1 B3M1        0.0000
     15 CM          2.1270   -1.2590   -0.0230 C.3       1 B3M1        0.0000
     16 HM1         2.8030   -1.3290    0.8610 H         1 B3M1        0.0000
     17 HM2         2.7720   -1.3130   -0.9320 H         1 B3M1        0.0000
     18 HM3         1.4800   -2.1640   -0.0190 H         1 B3M1        0.0000
@<TRIPOS>BOND
     1   12   11 1 
     2   17   15 1 
     3    6    5 2 
     4    3    2 2 
     5   15   18 1 
     6   15    1 1 
     7   15   16 1 
     8    8    7 1 
     9   10    9 1 
    10    5    7 ar
    11    5    4 ar
    12    2    1 ar
    13    2    4 ar
    14    1    9 ar
    15    9    7 ar
    16   11    4 1 
    17   11   13 1 
    18   11   14 1 
