@<TRIPOS>MOLECULE
C:\Users\Praveer\PycharmProjects\pdb_to_mol2_converter\data\pdb\b3pc.pdb
   16    16     0     0     0
SMALL
GASTEIGER

@<TRIPOS>ATOM
      1 N1          1.4060    0.0030    0.0250 N.ar      1 B3P1        0.0000
      2 C2          2.0120    1.1920    0.0060 C.ar      1 B3P1        0.0000
      3 N2          3.3320    1.3060    0.0150 N.pl3     1 B3P1        0.0000
      4 H21         3.8510    0.4580    0.0340 H         1 B3P1        0.0000
      5 H22         3.7960    2.1830   -0.0030 H         1 B3P1        0.0000
      6 N3          1.2880    2.3490   -0.0140 N.ar      1 B3P1        0.0000
      7 H3          1.7580    3.2280    0.0070 H         1 B3P1        0.0000
      8 C4         -0.0800    2.4100   -0.0430 C.ar      1 B3P1        0.0000
      9 O4         -0.6050    3.5210   -0.0410 O.2       1 B3P1        0.0000
     10 C5         -0.7630    1.1380   -0.0990 C.ar      1 B3P1        0.0000
     11 C6          0.0100    0.0030    0.0230 C.ar      1 B3P1        0.0000
     12 H6         -0.4980   -0.9600    0.0700 H         1 B3P1        0.0000
     13 CM         -2.2650    1.0960   -0.0660 C.3       1 B3P1        0.0000
     14 HM1        -2.6980    1.9630   -0.6150 H         1 B3P1        0.0000
     15 HM2        -2.6360    1.1400    0.9820 H         1 B3P1        0.0000
     16 HM3        -2.6580    0.1690   -0.5380 H         1 B3P1        0.0000
@<TRIPOS>BOND
     1   14   13 1 
     2   16   13 1 
     3   10   13 1 
     4   10    8 ar
     5   10   11 ar
     6   13   15 1 
     7    8    9 2 
     8    8    6 ar
     9    6    2 ar
    10    6    7 1 
    11    5    3 1 
    12    2    3 1 
    13    2    1 ar
    14    3    4 1 
    15   11    1 ar
    16   11   12 1 
