@<TRIPOS>MOLECULE
C:\Users\Praveer\PycharmProjects\pdb_to_mol2_converter\data\pdb\b4ac.pdb
   21    21     0     0     0
SMALL
GASTEIGER

@<TRIPOS>ATOM
      1 N1          1.3530   -0.0020   -0.0070 N.ar      1 B4A1        0.0000
      2 C2          2.0460    1.2410   -0.0340 C.ar      1 B4A1        0.0000
      3 O2          3.2740    1.2390   -0.0610 O.2       1 B4A1        0.0000
      4 N3          1.3270    2.3950   -0.0300 N.ar      1 B4A1        0.0000
      5 C4         -0.0160    2.3830    0.0230 C.ar      1 B4A1        0.0000
      6 N4         -0.6390    3.6010   -0.0460 N.am      1 B4A1        0.0000
      7 H4         -0.0390    4.2450   -0.4980 H         1 B4A1        0.0000
      8 C5         -0.7280    1.1600    0.0200 C.ar      1 B4A1        0.0000
      9 H5         -1.8130    1.1410   -0.0030 H         1 B4A1        0.0000
     10 C6         -0.0090   -0.0030    0.0110 C.ar      1 B4A1        0.0000
     11 H6         -0.4920   -0.9810    0.0060 H         1 B4A1        0.0000
     12 C7         -1.7040    4.0750    0.5870 C.2       1 B4A1        0.0000
     13 O7         -2.0480    5.2270    0.3880 O.2       1 B4A1        0.0000
     14 C8         -2.4590    3.2280    1.5460 C.3       1 B4A1        0.0000
     15 H81        -1.7660    2.6870    2.2240 H         1 B4A1        0.0000
     16 H82        -3.1050    2.5090    1.0020 H         1 B4A1        0.0000
     17 H83        -3.1110    3.8830    2.1640 H         1 B4A1        0.0000
     18 CM          2.1260   -1.2570   -0.0110 C.3       1 B4A1        0.0000
     19 HM1         2.8020   -1.3050    0.8740 H         1 B4A1        0.0000
     20 HM2         2.7750   -1.3150   -0.9170 H         1 B4A1        0.0000
     21 HM3         1.4850   -2.1660    0.0040 H         1 B4A1        0.0000
@<TRIPOS>BOND
     1   20   18 1 
     2    7    6 1 
     3    3    2 2 
     4    6    5 1 
     5    6   12 am
     6    2    4 ar
     7    2    1 ar
     8    4    5 ar
     9   18    1 1 
    10   18   21 1 
    11   18   19 1 
    12    1   10 ar
    13    9    8 1 
    14   11   10 1 
    15   10    8 ar
    16    8    5 ar
    17   13   12 2 
    18   12   14 1 
    19   16   14 1 
    20   14   17 1 
    21   14   15 1 
