@<TRIPOS>MOLECULE
C:\Users\Praveer\PycharmProjects\pdb_to_mol2_converter\data\pdb\b4mc.pdb
   19    19     0     0     0
SMALL
GASTEIGER

@<TRIPOS>ATOM
      1 N1          1.3300    0.0250    0.0060 N.ar      1 B4M1        0.0000
      2 C2          2.0050    1.2770   -0.0950 C.ar      1 B4M1        0.0000
      3 O2          3.2090    1.2890   -0.3480 O.2       1 B4M1        0.0000
      4 N3          1.3000    2.4270    0.0910 N.ar      1 B4M1        0.0000
      5 C4         -0.0180    2.3970    0.3770 C.ar      1 B4M1        0.0000
      6 N4         -0.6470    3.5930    0.5490 N.pl3     1 B4M1        0.0000
      7 H4         -0.0110    4.3480    0.2970 H         1 B4M1        0.0000
      8 C5         -0.7190    1.1490    0.4670 C.ar      1 B4M1        0.0000
      9 H5         -1.7840    1.1020    0.6930 H         1 B4M1        0.0000
     10 C6         -0.0050   -0.0020    0.2810 C.ar      1 B4M1        0.0000
     11 H6         -0.4760   -0.9830    0.3510 H         1 B4M1        0.0000
     12 CM4        -1.9840    3.8630   -0.0280 C.3       1 B4M1        0.0000
     13 H41        -2.7220    3.0860    0.2680 H         1 B4M1        0.0000
     14 H42        -1.9390    3.9010   -1.1400 H         1 B4M1        0.0000
     15 H43        -2.3660    4.8440    0.3350 H         1 B4M1        0.0000
     16 CM          2.0960   -1.2200   -0.1860 C.3       1 B4M1        0.0000
     17 HM1         2.8630   -1.3390    0.6160 H         1 B4M1        0.0000
     18 HM2         2.6380   -1.2040   -1.1600 H         1 B4M1        0.0000
     19 HM3         1.4530   -2.1280   -0.1750 H         1 B4M1        0.0000
@<TRIPOS>BOND
     1   18   16 1 
     2   14   12 1 
     3    3    2 2 
     4   16   19 1 
     5   16    1 1 
     6   16   17 1 
     7    2    1 ar
     8    2    4 ar
     9   12   13 1 
    10   12   15 1 
    11   12    6 1 
    12    1   10 ar
    13    4    5 ar
    14   10   11 1 
    15   10    8 ar
    16    7    6 1 
    17    5    8 ar
    18    5    6 1 
    19    8    9 1 
