@<TRIPOS>MOLECULE
C:\Users\Praveer\PycharmProjects\pdb_to_mol2_converter\data\pdb\b4su.pdb
   15    15     0     0     0
SMALL
GASTEIGER

@<TRIPOS>ATOM
      1 N1          1.2210   -0.1430   -0.2000 N.ar      1 B4S1        0.0000
      2 C2          1.9480    1.0340   -0.4760 C.ar      1 B4S1        0.0000
      3 O2          3.1430    1.1680   -0.2220 O.2       1 B4S1        0.0000
      4 N3          1.2460    2.0610   -1.0590 N.ar      1 B4S1        0.0000
      5 H3          1.7830    2.8870   -1.2480 H         1 B4S1        0.0000
      6 C4         -0.0970    2.0580   -1.3950 C.ar      1 B4S1        0.0000
      7 S4         -0.8060    3.3730   -2.0900 S.2       1 B4S1        0.0000
      8 C5         -0.7950    0.8430   -1.0850 C.ar      1 B4S1        0.0000
      9 H5         -1.8580    0.7520   -1.3020 H         1 B4S1        0.0000
     10 C6         -0.1130   -0.2010   -0.5030 C.ar      1 B4S1        0.0000
     11 H6         -0.6190   -1.1340   -0.2530 H         1 B4S1        0.0000
     12 CM          1.8970   -1.2940    0.4290 C.3       1 B4S1        0.0000
     13 HM1         2.9980   -1.1480    0.5230 H         1 B4S1        0.0000
     14 HM2         1.7500   -2.2250   -0.1650 H         1 B4S1        0.0000
     15 HM3         1.5080   -1.4790    1.4560 H         1 B4S1        0.0000
@<TRIPOS>BOND
     1    7    6 2 
     2    6    8 ar
     3    6    4 ar
     4    9    8 1 
     5    5    4 1 
     6    8   10 ar
     7    4    2 ar
     8   10   11 1 
     9   10    1 ar
    10    2    3 2 
    11    2    1 ar
    12    1   12 1 
    13   14   12 1 
    14   12   13 1 
    15   12   15 1 
