@<TRIPOS>MOLECULE
C:\Users\Praveer\PycharmProjects\pdb_to_mol2_converter\data\pdb\b52u.pdb
   18    18     0     0     0
SMALL
GASTEIGER

@<TRIPOS>ATOM
      1 N1          1.3740    0.0030   -0.0000 N.ar      1 B521        0.0000
      2 C2          2.1100    1.2140   -0.0090 C.ar      1 B521        0.0000
      3 S2          3.7570    1.3610   -0.0170 S.2       1 B521        0.0000
      4 N3          1.3120    2.3460   -0.0020 N.ar      1 B521        0.0000
      5 H3          1.7720    3.2370    0.0260 H         1 B521        0.0000
      6 C4         -0.0650    2.4120    0.0250 C.ar      1 B521        0.0000
      7 O4         -0.5920    3.5200    0.0920 O.2       1 B521        0.0000
      8 C5         -0.7560    1.1500   -0.0340 C.ar      1 B521        0.0000
      9 C6          0.0010    0.0040    0.0010 C.ar      1 B521        0.0000
     10 H6         -0.4790   -0.9730    0.0460 H         1 B521        0.0000
     11 C5M        -2.2500    1.1370    0.0660 C.3       1 B521        0.0000
     12 H51        -2.6920    2.0200   -0.4510 H         1 B521        0.0000
     13 H52        -2.5730    1.1750    1.1300 H         1 B521        0.0000
     14 H53        -2.6860    0.2260   -0.4000 H         1 B521        0.0000
     15 CM          2.1190   -1.2690    0.0140 C.3       1 B521        0.0000
     16 HM1         2.7710   -1.3430    0.9150 H         1 B521        0.0000
     17 HM2         2.7760   -1.3600   -0.8820 H         1 B521        0.0000
     18 HM3         1.4510   -2.1590    0.0190 H         1 B521        0.0000
@<TRIPOS>BOND
     1   17   15 1 
     2   12   11 1 
     3   14   11 1 
     4    8    9 ar
     5    8    6 ar
     6    8   11 1 
     7    3    2 2 
     8    2    4 ar
     9    2    1 ar
    10    4    6 ar
    11    4    5 1 
    12    1    9 ar
    13    1   15 1 
    14    9   10 1 
    15   15   18 1 
    16   15   16 1 
    17    6    7 2 
    18   11   13 1 
