@<TRIPOS>MOLECULE
C:\Users\Praveer\PycharmProjects\pdb_to_mol2_converter\data\pdb\b5au.pdb
   24    24     0     0     0
SMALL
GASTEIGER

@<TRIPOS>ATOM
      1 N1          1.3600    0.0040    0.0020 N.ar      1 B5A1        0.0000
      2 C2          2.0780    1.2160    0.0020 C.ar      1 B5A1        0.0000
      3 O2          3.3040    1.2710    0.0020 O.2       1 B5A1        0.0000
      4 N3          1.3270    2.3590    0.0010 N.ar      1 B5A1        0.0000
      5 H3          1.8340    3.2250    0.0010 H         1 B5A1        0.0000
      6 C4         -0.0460    2.4230    0.0010 C.ar      1 B5A1        0.0000
      7 O4         -0.5810    3.5270    0.0000 O.2       1 B5A1        0.0000
      8 C5         -0.7580    1.1680    0.0000 C.ar      1 B5A1        0.0000
      9 C6         -0.0050    0.0070    0.0020 C.ar      1 B5A1        0.0000
     10 H6         -0.4580   -0.9850    0.0020 H         1 B5A1        0.0000
     11 C          -2.2230    1.3810   -0.0020 C.3       1 B5A1        0.0000
     12 HC1        -2.5350    1.9200   -0.9170 H         1 B5A1        0.0000
     13 HC2        -2.5390    1.9170    0.9130 H         1 B5A1        0.0000
     14 N          -2.9490    0.0770   -0.0050 N.4       1 B5A1        0.0000
     15 HN1        -2.6750   -0.4640    0.8060 H         1 B5A1        0.0000
     16 HN2        -2.6650   -0.4650   -0.8120 H         1 B5A1        0.0000
     17 CA         -4.4510    0.2100   -0.0140 C.3       1 B5A1        0.0000
     18 HA1        -4.7300    0.7640   -0.9350 H         1 B5A1        0.0000
     19 HA2        -4.7400    0.7690    0.9010 H         1 B5A1        0.0000
     20 HA3        -4.8750   -0.8170   -0.0140 H         1 B5A1        0.0000
     21 CM          2.1230   -1.2570    0.0030 C.3       1 B5A1        0.0000
     22 HM1         2.7850   -1.3240    0.8980 H         1 B5A1        0.0000
     23 HM2         2.7850   -1.3250   -0.8930 H         1 B5A1        0.0000
     24 HM3         1.4760   -2.1630    0.0030 H         1 B5A1        0.0000
@<TRIPOS>BOND
     1   18   17 1 
     2   12   11 1 
     3   23   21 1 
     4   16   14 1 
     5   17   20 1 
     6   17   14 1 
     7   17   19 1 
     8   14   11 1 
     9   14   15 1 
    10   11    8 1 
    11   11   13 1 
    12    7    6 2 
    13    8    6 ar
    14    8    9 ar
    15    4    5 1 
    16    4    6 ar
    17    4    2 ar
    18    1    2 ar
    19    1    9 ar
    20    1   21 1 
    21    2    3 2 
    22    9   10 1 
    23   21   24 1 
    24   21   22 1 
