@<TRIPOS>MOLECULE
C:\Users\Praveer\PycharmProjects\pdb_to_mol2_converter\data\pdb\b5cu.pdb
   20    20     0     0     0
SMALL
GASTEIGER

@<TRIPOS>ATOM
      1 N1          1.3760    0.0030    0.0020 N.ar      1 B5C1        0.0000
      2 C2          2.0800    1.2200    0.0010 C.ar      1 B5C1        0.0000
      3 O2          3.3090    1.2860    0.0010 O.2       1 B5C1        0.0000
      4 N3          1.3230    2.3590   -0.0010 N.ar      1 B5C1        0.0000
      5 H3          1.8130    3.2290   -0.0070 H         1 B5C1        0.0000
      6 C4         -0.0520    2.4220   -0.0020 C.ar      1 B5C1        0.0000
      7 O4         -0.5690    3.5390   -0.0120 O.2       1 B5C1        0.0000
      8 C5         -0.7570    1.1580    0.0070 C.ar      1 B5C1        0.0000
      9 C6          0.0010    0.0040    0.0040 C.ar      1 B5C1        0.0000
     10 H6         -0.4900   -0.9730   -0.0060 H         1 B5C1        0.0000
     11 C7         -2.2700    1.1800    0.0140 C.3       1 B5C1        0.0000
     12 H71        -2.6090    1.6470   -0.9340 H         1 B5C1        0.0000
     13 H72        -2.6090    1.8110    0.8620 H         1 B5C1        0.0000
     14 C8         -2.9440   -0.1860    0.1190 C.2       1 B5C1        0.0000
     15 O81        -3.7680   -0.3160    1.0560 O.co2     1 B5C1        0.0000
     16 O82        -2.5970   -1.0390   -0.7370 O.co2     1 B5C1        0.0000
     17 CM          2.1420   -1.2560    0.0020 C.3       1 B5C1        0.0000
     18 HM1         2.7970   -1.3280    0.9010 H         1 B5C1        0.0000
     19 HM2         2.7980   -1.3260   -0.8970 H         1 B5C1        0.0000
     20 HM3         1.4790   -2.1520   -0.0000 H         1 B5C1        0.0000
@<TRIPOS>BOND
     1   12   11 1 
     2   19   17 1 
     3   16   14 ar
     4    7    6 2 
     5    5    4 1 
     6   10    9 1 
     7    6    4 ar
     8    6    8 ar
     9    4    2 ar
    10   20   17 1 
    11    2    3 2 
    12    2    1 ar
    13    1   17 1 
    14    1    9 ar
    15   17   18 1 
    16    9    8 ar
    17    8   11 1 
    18   11   14 1 
    19   11   13 1 
    20   14   15 ar
