@<TRIPOS>MOLECULE
C:\Users\Praveer\PycharmProjects\pdb_to_mol2_converter\data\pdb\b5du.pdb
   26    26     0     0     0
SMALL
GASTEIGER

@<TRIPOS>ATOM
      1 N1          1.3680    0.0080    0.0040 N.ar      1 B5D1        0.0000
      2 C2          2.0810    1.2230    0.0020 C.ar      1 B5D1        0.0000
      3 O2          3.3070    1.2820    0.0040 O.2       1 B5D1        0.0000
      4 N3          1.3280    2.3660   -0.0080 N.ar      1 B5D1        0.0000
      5 H3          1.8340    3.2310   -0.0240 H         1 B5D1        0.0000
      6 C4         -0.0460    2.4270   -0.0260 C.ar      1 B5D1        0.0000
      7 O4         -0.5830    3.5290   -0.1150 O.2       1 B5D1        0.0000
      8 C5         -0.7510    1.1640    0.0110 C.ar      1 B5D1        0.0000
      9 C6         -0.0010    0.0090    0.0100 C.ar      1 B5D1        0.0000
     10 H6         -0.4830   -0.9720    0.0110 H         1 B5D1        0.0000
     11 C7         -2.2290    1.1880    0.0350 C.3       1 B5D1        0.0000
     12 H71        -2.6140    1.8270    0.8480 H         1 B5D1        0.0000
     13 H72        -2.6500    0.1650    0.0650 H         1 B5D1        0.0000
     14 N8         -2.6790    1.7900   -1.2530 N.4       1 B5D1        0.0000
     15 H81        -2.2340    1.2780   -2.0120 H         1 B5D1        0.0000
     16 H82        -2.3800    2.7500   -1.3290 H         1 B5D1        0.0000
     17 C9         -4.1690    1.6340   -1.5460 C.3       1 B5D1        0.0000
     18 H91        -4.4440    2.4750   -2.1960 H         1 B5D1        0.0000
     19 H92        -4.6890    1.6690   -0.5830 H         1 B5D1        0.0000
     20 C10        -4.4300    0.3070   -2.2740 C.2       1 B5D1        0.0000
     21 O11        -5.6370    0.0650   -2.5000 O.co2     1 B5D1        0.0000
     22 O12        -3.4200   -0.3910   -2.5680 O.co2     1 B5D1        0.0000
     23 CM          2.1310   -1.2530    0.0070 C.3       1 B5D1        0.0000
     24 HM1         2.7860   -1.3230    0.9080 H         1 B5D1        0.0000
     25 HM2         2.7960   -1.3220   -0.8860 H         1 B5D1        0.0000
     26 HM3         1.4780   -2.1540    0.0020 H         1 B5D1        0.0000
@<TRIPOS>BOND
     1   22   20 ar
     2   21   20 ar
     3   20   17 1 
     4   18   17 1 
     5   15   14 1 
     6   17   14 1 
     7   17   19 1 
     8   16   14 1 
     9   14   11 1 
    10   25   23 1 
    11    7    6 2 
    12    6    4 ar
    13    6    8 ar
    14    5    4 1 
    15    4    2 ar
    16    2    1 ar
    17    2    3 2 
    18   26   23 1 
    19    1   23 1 
    20    1    9 ar
    21   23   24 1 
    22    9    8 ar
    23    9   10 1 
    24    8   11 1 
    25   11   13 1 
    26   11   12 1 
