@<TRIPOS>MOLECULE
C:\Users\Praveer\PycharmProjects\pdb_to_mol2_converter\data\pdb\b5fc.pdb
   18    18     0     0     0
SMALL
GASTEIGER

@<TRIPOS>ATOM
      1 N1          1.3590    0.0080    0.0010 N.ar      1 B5F1        0.0000
      2 C2          2.0520    1.2540    0.0010 C.ar      1 B5F1        0.0000
      3 O2          3.2820    1.2520    0.0010 O.2       1 B5F1        0.0000
      4 N3          1.3330    2.4100    0.0000 N.ar      1 B5F1        0.0000
      5 C4         -0.0030    2.3990    0.0000 C.ar      1 B5F1        0.0000
      6 N4         -0.6060    3.5870   -0.0000 N.pl3     1 B5F1        0.0000
      7 H41         0.0220    4.3620   -0.0000 H         1 B5F1        0.0000
      8 H42        -1.5880    3.7340   -0.0000 H         1 B5F1        0.0000
      9 C5         -0.7310    1.1640    0.0000 C.ar      1 B5F1        0.0000
     10 C6         -0.0060    0.0080    0.0010 C.ar      1 B5F1        0.0000
     11 H6         -0.5060   -0.9630    0.0010 H         1 B5F1        0.0000
     12 C7         -2.1870    1.0720   -0.0000 C.2       1 B5F1        0.0000
     13 H7         -2.7530    2.0270   -0.0000 H         1 B5F1        0.0000
     14 O7         -2.8120    0.0330    0.0000 O.2       1 B5F1        0.0000
     15 CM          2.1300   -1.2500    0.0010 C.3       1 B5F1        0.0000
     16 HM1         2.7900   -1.3100    0.8980 H         1 B5F1        0.0000
     17 HM2         2.7900   -1.3100   -0.8950 H         1 B5F1        0.0000
     18 HM3         1.4800   -2.1530    0.0020 H         1 B5F1        0.0000
@<TRIPOS>BOND
     1   17   15 1 
     2    4    5 ar
     3    4    2 ar
     4    5    6 1 
     5    5    9 ar
     6    6    7 1 
     7    6    8 1 
     8    9   12 1 
     9    9   10 ar
    10   12   13 1 
    11   12   14 2 
    12    1    2 ar
    13    1   10 ar
    14    1   15 1 
    15    2    3 2 
    16   10   11 1 
    17   15   18 1 
    18   15   16 1 
