@<TRIPOS>MOLECULE
C:\Users\Praveer\PycharmProjects\pdb_to_mol2_converter\data\pdb\b5hu.pdb
   16    16     0     0     0
SMALL
GASTEIGER

@<TRIPOS>ATOM
      1 N1          1.3680    0.0040    0.0010 N.ar      1 B5H1        0.0000
      2 C2          2.0790    1.2230    0.0000 C.ar      1 B5H1        0.0000
      3 O2          3.3060    1.2800    0.0010 O.2       1 B5H1        0.0000
      4 N3          1.3270    2.3700   -0.0010 N.ar      1 B5H1        0.0000
      5 H3          1.8260    3.2400   -0.0020 H         1 B5H1        0.0000
      6 C4         -0.0530    2.4330   -0.0020 C.ar      1 B5H1        0.0000
      7 O4         -0.5810    3.5470   -0.0030 O.2       1 B5H1        0.0000
      8 C5         -0.7600    1.1550   -0.0010 C.ar      1 B5H1        0.0000
      9 O5         -2.1290    1.0950   -0.0010 O.3       1 B5H1        0.0000
     10 HO5        -2.4800    1.9960   -0.0020 H         1 B5H1        0.0000
     11 C6         -0.0050    0.0080    0.0010 C.ar      1 B5H1        0.0000
     12 H6         -0.5010   -0.9620    0.0020 H         1 B5H1        0.0000
     13 CM          2.1320   -1.2560    0.0030 C.3       1 B5H1        0.0000
     14 HM1         2.7900   -1.3240    0.9000 H         1 B5H1        0.0000
     15 HM2         2.7910   -1.3260   -0.8940 H         1 B5H1        0.0000
     16 HM3         1.4760   -2.1560    0.0030 H         1 B5H1        0.0000
@<TRIPOS>BOND
     1   15   13 1 
     2    7    6 2 
     3    5    4 1 
     4    6    4 ar
     5    6    8 ar
     6   10    9 1 
     7    4    2 ar
     8    8    9 1 
     9    8   11 ar
    10    2    1 ar
    11    2    3 2 
    12    1   11 ar
    13    1   13 1 
    14   11   12 1 
    15   13   16 1 
    16   13   14 1 
