@<TRIPOS>MOLECULE
C:\Users\Praveer\PycharmProjects\pdb_to_mol2_converter\data\pdb\b5mc.pdb
   19    19     0     0     0
SMALL
GASTEIGER

@<TRIPOS>ATOM
      1 N1          1.3610    0.0060    0.0010 N.ar      1 B5M1        0.0000
      2 C2          2.0680    1.2440    0.0010 C.ar      1 B5M1        0.0000
      3 O2          3.2980    1.2300    0.0010 O.2       1 B5M1        0.0000
      4 N3          1.3610    2.4070    0.0000 N.ar      1 B5M1        0.0000
      5 C4          0.0190    2.4060   -0.0000 C.ar      1 B5M1        0.0000
      6 N4         -0.6000    3.5940   -0.0010 N.pl3     1 B5M1        0.0000
      7 H41        -0.0050    4.3940   -0.0000 H         1 B5M1        0.0000
      8 H42        -1.5880    3.6960   -0.0010 H         1 B5M1        0.0000
      9 C5         -0.7320    1.1650   -0.0010 C.ar      1 B5M1        0.0000
     10 C6         -0.0030    0.0050    0.0000 C.ar      1 B5M1        0.0000
     11 H6         -0.4920   -0.9690   -0.0000 H         1 B5M1        0.0000
     12 CM5        -2.2340    1.1580   -0.0020 C.3       1 B5M1        0.0000
     13 H51        -2.6330    1.6720   -0.9040 H         1 B5M1        0.0000
     14 H52        -2.6340    1.6720    0.9010 H         1 B5M1        0.0000
     15 H53        -2.6360    0.1210   -0.0020 H         1 B5M1        0.0000
     16 CM          2.1250   -1.2540    0.0020 C.3       1 B5M1        0.0000
     17 HM1         2.7840   -1.3140    0.8990 H         1 B5M1        0.0000
     18 HM2         2.7850   -1.3150   -0.8950 H         1 B5M1        0.0000
     19 HM3         1.4720   -2.1550    0.0020 H         1 B5M1        0.0000
@<TRIPOS>BOND
     1   13   12 1 
     2   18   16 1 
     3   12   15 1 
     4   12    9 1 
     5   12   14 1 
     6    6    8 1 
     7    6    5 1 
     8    6    7 1 
     9    9    5 ar
    10    9   10 ar
    11    4    5 ar
    12    4    2 ar
    13   10   11 1 
    14   10    1 ar
    15    1    2 ar
    16    1   16 1 
    17    2    3 2 
    18   16   19 1 
    19   16   17 1 
