@<TRIPOS>MOLECULE
C:\Users\Praveer\PycharmProjects\pdb_to_mol2_converter\data\pdb\b5np.pdb
   28    29     0     0     0
SMALL
GASTEIGER

@<TRIPOS>ATOM
      1 C5'        -0.4990   -0.9870    1.1990 C.3       1 B5N1        0.0000
      2 H51'       -1.5920   -1.0380    1.0130 H         1 B5N1        0.0000
      3 H52'       -0.0830   -1.9640    0.8540 H         1 B5N1        0.0000
      4 O5'        -0.3140   -0.7660    2.6040 O.3       1 B5N1        0.0000
      5 P           0.9620   -1.3780    3.4050 P.3       1 B5N1        0.0000
      6 O1P         1.5670   -2.4900    2.5810 O.2       1 B5N1        0.0000
      7 O2P         0.5280   -1.6430    4.8250 O.3       1 B5N1        0.0000
      8 O3'         2.0630   -0.1640    3.4500 O.3       1 B5N1        0.0000
      9 C3'         3.2800   -0.4210    4.1510 C.3       1 B5N1        0.0000
     10 H31'        3.8760   -1.2110    3.6380 H         1 B5N1        0.0000
     11 H32'        3.0860   -0.7410    5.2020 H         1 B5N1        0.0000
     12 H33'        3.8920    0.5060    4.1870 H         1 B5N1        0.0000
     13 C4          0.7320    2.4670   -0.0000 C.3       1 B5N1        0.0000
     14 H41         0.4400    3.2550   -0.7080 H         1 B5N1        0.0000
     15 H42         1.0690    2.9650    0.9230 H         1 B5N1        0.0000
     16 C3          1.8440    1.5520   -0.5620 C.3       1 B5N1        0.0000
     17 H31         2.8440    1.9310   -0.3140 H         1 B5N1        0.0000
     18 H32         1.7900    1.5350   -1.6630 H         1 B5N1        0.0000
     19 C1          0.1160    0.1430    0.3660 C.3       1 B5N1        0.0000
     20 C2          1.6180    0.1410    0.0130 C.3       1 B5N1        0.0000
     21 H21         2.2050   -0.0270    0.9280 H         1 B5N1        0.0000
     22 O3T         1.9190   -0.8370   -0.9800 O.3       1 B5N1        0.0000
     23 H3T         2.8040   -1.1640   -0.8070 H         1 B5N1        0.0000
     24 C5         -0.4240    1.5410    0.3290 C.3       1 B5N1        0.0000
     25 H51        -1.1410    1.7720    1.1290 H         1 B5N1        0.0000
     26 C6         -0.8270    0.5810   -0.7780 C.3       1 B5N1        0.0000
     27 H61        -1.8450    0.2410   -0.6720 H         1 B5N1        0.0000
     28 H62        -0.3290    0.7270   -1.7220 H         1 B5N1        0.0000
@<TRIPOS>BOND
     1   28   26 1 
     2   18   16 1 
     3   22   23 1 
     4   22   20 1 
     5   26   27 1 
     6   26   24 1 
     7   26   19 1 
     8   14   13 1 
     9   16   17 1 
    10   16   13 1 
    11   16   20 1 
    12   13   24 1 
    13   13   15 1 
    14   20   19 1 
    15   20   21 1 
    16   24   19 1 
    17   24   25 1 
    18   19    1 1 
    19    3    1 1 
    20    2    1 1 
    21    1    4 1 
    22    6    5 2 
    23    4    5 1 
    24    5    8 1 
    25    5    7 1 
    26    8    9 1 
    27   10    9 1 
    28    9   12 1 
    29    9   11 1 
