@<TRIPOS>MOLECULE
C:\Users\Praveer\PycharmProjects\pdb_to_mol2_converter\data\pdb\b5sp.pdb
   28    29     0     0     0
SMALL
GASTEIGER

@<TRIPOS>ATOM
      1 C1          0.0060   -0.0610   -0.2220 C.3       1 B5S1        0.0000
      2 H11        -0.3980   -0.7550   -0.9700 H         1 B5S1        0.0000
      3 C3          1.8370    1.5000    0.1210 C.3       1 B5S1        0.0000
      4 H31         2.4570    1.7510    0.9970 H         1 B5S1        0.0000
      5 O3T         2.5790    1.8470   -1.0450 O.3       1 B5S1        0.0000
      6 H3T         2.0380    1.6090   -1.7990 H         1 B5S1        0.0000
      7 C6         -0.9230    0.3550    0.9080 C.3       1 B5S1        0.0000
      8 H61        -0.4410    0.5940    1.8450 H         1 B5S1        0.0000
      9 H62        -1.9150   -0.0640    0.8190 H         1 B5S1        0.0000
     10 C4          0.5400    2.3210    0.1060 C.3       1 B5S1        0.0000
     11 H41         0.5520    3.1380   -0.6290 H         1 B5S1        0.0000
     12 H42         0.3700    2.7910    1.0870 H         1 B5S1        0.0000
     13 C5         -0.5710    1.3310   -0.2010 C.3       1 B5S1        0.0000
     14 H51        -1.3500    1.5500   -0.9440 H         1 B5S1        0.0000
     15 C2          1.5110   -0.0090    0.0850 C.3       1 B5S1        0.0000
     16 H21         2.0460   -0.5210   -0.7320 H         1 B5S1        0.0000
     17 C5'         1.7440   -0.8370    1.3720 C.3       1 B5S1        0.0000
     18 H51'        2.7260   -1.3560    1.2790 H         1 B5S1        0.0000
     19 H52'        0.9540   -1.6230    1.4430 H         1 B5S1        0.0000
     20 O5'         1.7820    0.0170    2.5240 O.3       1 B5S1        0.0000
     21 P           1.7300   -0.6660    4.0020 P.3       1 B5S1        0.0000
     22 O1P         1.0180   -1.9930    3.8850 O.2       1 B5S1        0.0000
     23 O2P         3.1190   -0.6020    4.5900 O.3       1 B5S1        0.0000
     24 O3'         0.7640    0.3260    4.8760 O.3       1 B5S1        0.0000
     25 C3'         0.4900   -0.0490    6.2250 C.3       1 B5S1        0.0000
     26 H31'        1.4180   -0.0120    6.8410 H         1 B5S1        0.0000
     27 H32'        0.0590   -1.0760    6.2860 H         1 B5S1        0.0000
     28 H33'       -0.2460    0.6580    6.6640 H         1 B5S1        0.0000
@<TRIPOS>BOND
     1    6    5 1 
     2    5    3 1 
     3    2    1 1 
     4   14   13 1 
     5   16   15 1 
     6   11   10 1 
     7    1   13 1 
     8    1   15 1 
     9    1    7 1 
    10   13   10 1 
    11   13    7 1 
    12   15    3 1 
    13   15   17 1 
    14   10    3 1 
    15   10   12 1 
    16    3    4 1 
    17    9    7 1 
    18    7    8 1 
    19   18   17 1 
    20   17   19 1 
    21   17   20 1 
    22   20   21 1 
    23   22   21 2 
    24   21   23 1 
    25   21   24 1 
    26   24   25 1 
    27   25   27 1 
    28   25   28 1 
    29   25   26 1 
