@<TRIPOS>MOLECULE
C:\Users\Praveer\PycharmProjects\pdb_to_mol2_converter\data\pdb\b5tu.pdb
   30    30     0     0     0
SMALL
GASTEIGER

@<TRIPOS>ATOM
      1 N1          1.4080    0.0360    0.0190 N.ar      1 B5T1        0.0000
      2 C2          2.0630    1.2760   -0.0720 C.ar      1 B5T1        0.0000
      3 O2          3.2850    1.3860   -0.1950 O.2       1 B5T1        0.0000
      4 N3          1.2700    2.3870   -0.0270 N.ar      1 B5T1        0.0000
      5 H3          1.7410    3.2680   -0.0880 H         1 B5T1        0.0000
      6 C4         -0.1010    2.3930    0.0730 C.ar      1 B5T1        0.0000
      7 O4         -0.6870    3.4720    0.0080 O.2       1 B5T1        0.0000
      8 C5         -0.7550    1.1050    0.1650 C.ar      1 B5T1        0.0000
      9 C6          0.0430   -0.0180    0.1440 C.ar      1 B5T1        0.0000
     10 H6         -0.3840   -1.0200    0.2330 H         1 B5T1        0.0000
     11 C7         -2.2320    1.0760    0.3070 C.3       1 B5T1        0.0000
     12 H71        -2.5660    1.5740    1.2340 H         1 B5T1        0.0000
     13 H72        -2.6060    0.0450    0.2260 H         1 B5T1        0.0000
     14 N8         -2.8140    1.8440   -0.8430 N.4       1 B5T1        0.0000
     15 H81        -2.6630    1.3300   -1.6980 H         1 B5T1        0.0000
     16 H82        -2.2650    2.6950   -0.9120 H         1 B5T1        0.0000
     17 C9         -4.2700    2.2860   -0.8340 C.3       1 B5T1        0.0000
     18 H91        -4.2990    3.0690   -1.6160 H         1 B5T1        0.0000
     19 H92        -4.4070    2.7960    0.1320 H         1 B5T1        0.0000
     20 C10        -5.3170    1.2120   -1.1580 C.3       1 B5T1        0.0000
     21 H101       -4.9530    0.4420   -1.8630 H         1 B5T1        0.0000
     22 H102       -6.2100    1.6940   -1.6080 H         1 B5T1        0.0000
     23 S11        -5.8980    0.3850    0.3210 S.3       1 B5T1        0.0000
     24 O11        -7.1150   -0.2590   -0.1200 O.3       1 B5T1        0.0000
     25 O12        -4.8100   -0.5130    0.6430 O.3       1 B5T1        0.0000
     26 O13        -6.0760    1.4810    1.2510 O.3       1 B5T1        0.0000
     27 CM          2.2260   -1.1880   -0.0210 C.3       1 B5T1        0.0000
     28 HM1         2.9500   -1.2150    0.8280 H         1 B5T1        0.0000
     29 HM2         2.8260   -1.2360   -0.9610 H         1 B5T1        0.0000
     30 HM3         1.6190   -2.1190    0.0320 H         1 B5T1        0.0000
@<TRIPOS>BOND
     1   21   20 1 
     2   15   14 1 
     3   18   17 1 
     4   22   20 1 
     5   20   17 1 
     6   20   23 1 
     7   29   27 1 
     8   16   14 1 
     9   14   17 1 
    10   14   11 1 
    11   17   19 1 
    12    3    2 2 
    13   24   23 1 
    14    5    4 1 
    15    2    4 ar
    16    2    1 ar
    17    4    6 ar
    18   27    1 1 
    19   27   30 1 
    20   27   28 1 
    21    7    6 2 
    22    1    9 ar
    23    6    8 ar
    24    9    8 ar
    25    9   10 1 
    26    8   11 1 
    27   13   11 1 
    28   11   12 1 
    29   23   25 1 
    30   23   26 1 
