@<TRIPOS>MOLECULE
C:\Users\Praveer\PycharmProjects\pdb_to_mol2_converter\data\pdb\b66a.pdb
   37    38     0     0     0
SMALL
GASTEIGER

@<TRIPOS>ATOM
      1 N9          1.3800    0.0070   -0.0100 N.ar      1 B661        0.0000
      2 C8          1.7610    1.3290   -0.0230 C.ar      1 B661        0.0000
      3 H8          2.8130    1.6210   -0.0290 H         1 B661        0.0000
      4 N7          0.7470    2.1790   -0.0250 N.ar      1 B661        0.0000
      5 C5         -0.4000    1.3570   -0.0130 C.ar      1 B661        0.0000
      6 C6         -1.7950    1.6300   -0.0030 C.3       1 B661        0.0000
      7 N1         -2.6080    0.5070   -0.0180 N.2       1 B661        0.0000
      8 C2         -2.1210   -0.7530   -0.0080 C.2       1 B661        0.0000
      9 H2         -2.8460   -1.5730   -0.0120 H         1 B661        0.0000
     10 N3         -0.8090   -1.0620    0.0030 N.pl3     1 B661        0.0000
     11 C4         -0.0040    0.0070   -0.0050 C.ar      1 B661        0.0000
     12 N6         -2.4090    2.9210   -0.0250 N.am      1 B661        0.0000
     13 CM6        -1.6120    4.1360   -0.2530 C.3       1 B661        0.0000
     14 H61        -1.3470    4.1830   -1.3340 H         1 B661        0.0000
     15 H62        -0.7000    4.0960    0.3780 H         1 B661        0.0000
     16 H63        -2.1640    5.0510    0.0620 H         1 B661        0.0000
     17 C10        -3.7770    3.0790    0.0030 C.2       1 B661        0.0000
     18 O10        -4.5670    2.4410    0.6890 O.2       1 B661        0.0000
     19 N11        -4.1760    4.0580   -0.8570 N.am      1 B661        0.0000
     20 H11        -3.5660    4.2330   -1.6340 H         1 B661        0.0000
     21 C12        -5.5290    4.1670   -1.3740 C.3       1 B661        0.0000
     22 H12        -6.0790    3.2110   -1.2340 H         1 B661        0.0000
     23 C13        -5.3860    4.4120   -2.8970 C.2       1 B661        0.0000
     24 ODA        -6.4630    4.5190   -3.5430 O.co2     1 B661        0.0000
     25 ODB        -4.2070    4.5060   -3.3390 O.co2     1 B661        0.0000
     26 C14        -6.3420    5.3300   -0.7970 C.3       1 B661        0.0000
     27 H14        -5.8370    6.2950   -1.0380 H         1 B661        0.0000
     28 O14        -7.6640    5.3550   -1.3250 O.3       1 B661        0.0000
     29 H14O       -7.4990    5.1660   -2.2770 H         1 B661        0.0000
     30 C15        -6.4680    5.2020    0.7290 C.3       1 B661        0.0000
     31 H151       -5.4700    5.2440    1.2100 H         1 B661        0.0000
     32 H152       -6.9430    4.2320    0.9890 H         1 B661        0.0000
     33 H153       -7.0950    6.0240    1.1340 H         1 B661        0.0000
     34 CM          2.2550   -1.1780   -0.0040 C.3       1 B661        0.0000
     35 HM1         3.3350   -0.9090   -0.0030 H         1 B661        0.0000
     36 HM2         2.0550   -1.8080   -0.8980 H         1 B661        0.0000
     37 HM3         2.0530   -1.8000    0.8970 H         1 B661        0.0000
@<TRIPOS>BOND
     1   24   23 ar
     2   25   23 ar
     3   23   21 1 
     4   29   28 1 
     5   20   19 1 
     6   21   22 1 
     7   21   19 1 
     8   21   26 1 
     9   14   13 1 
    10   28   26 1 
    11   27   26 1 
    12   36   34 1 
    13   19   17 am
    14   26   30 1 
    15   13   12 1 
    16   13   16 1 
    17   13   15 1 
    18    3    2 1 
    19    4    2 ar
    20    4    5 ar
    21   12    6 1 
    22   12   17 am
    23    2    1 ar
    24    7    8 2 
    25    7    6 1 
    26    5   11 ar
    27    5    6 1 
    28    9    8 1 
    29    1   11 ar
    30    1   34 1 
    31    8   10 1 
    32   11   10 1 
    33   34   35 1 
    34   34   37 1 
    35   17   18 2 
    36   30   32 1 
    37   30   33 1 
    38   30   31 1 
