@<TRIPOS>MOLECULE
C:\Users\Praveer\PycharmProjects\pdb_to_mol2_converter\data\pdb\b6aa.pdb
   23    24     0     0     0
SMALL
GASTEIGER

@<TRIPOS>ATOM
      1 N9          1.3900    0.0040    0.0000 N.ar      1 B6A1        0.0000
      2 C8          1.7680    1.3350    0.0010 C.ar      1 B6A1        0.0000
      3 H8          2.8190    1.6310    0.0010 H         1 B6A1        0.0000
      4 N7          0.7470    2.1840    0.0000 N.ar      1 B6A1        0.0000
      5 C5         -0.3780    1.3420   -0.0000 C.ar      1 B6A1        0.0000
      6 C6         -1.7520    1.6020   -0.0010 C.3       1 B6A1        0.0000
      7 N6         -2.1080    2.9560   -0.0020 N.am      1 B6A1        0.0000
      8 H6         -1.3120    3.5500   -0.0000 H         1 B6A1        0.0000
      9 N1         -2.6140    0.5350   -0.0020 N.2       1 B6A1        0.0000
     10 C2         -2.1370   -0.7340   -0.0010 C.2       1 B6A1        0.0000
     11 H2         -2.8650   -1.5530   -0.0010 H         1 B6A1        0.0000
     12 N3         -0.8230   -1.0560   -0.0000 N.pl3     1 B6A1        0.0000
     13 C4          0.0050    0.0010   -0.0000 C.ar      1 B6A1        0.0000
     14 C10        -3.2910    3.5760   -0.0030 C.2       1 B6A1        0.0000
     15 O10        -3.3110    4.7970   -0.0020 O.2       1 B6A1        0.0000
     16 C11        -4.5660    2.8170   -0.0050 C.3       1 B6A1        0.0000
     17 H11        -4.6360    2.1800    0.9010 H         1 B6A1        0.0000
     18 H12        -4.6330    2.1800   -0.9120 H         1 B6A1        0.0000
     19 H13        -5.4190    3.5290   -0.0070 H         1 B6A1        0.0000
     20 CM          2.2670   -1.1780    0.0010 C.3       1 B6A1        0.0000
     21 HM1         3.3460   -0.9060    0.0020 H         1 B6A1        0.0000
     22 HM2         2.0700   -1.8060   -0.8970 H         1 B6A1        0.0000
     23 HM3         2.0690   -1.8060    0.8980 H         1 B6A1        0.0000
@<TRIPOS>BOND
     1   18   16 1 
     2   22   20 1 
     3   19   16 1 
     4   16   14 1 
     5   16   17 1 
     6   14    7 am
     7   14   15 2 
     8    7    6 1 
     9    7    8 1 
    10    9    6 1 
    11    9   10 2 
    12    6    5 1 
    13   10   11 1 
    14   10   12 1 
    15    1   13 ar
    16    1    2 ar
    17    1   20 1 
    18    4    5 ar
    19    4    2 ar
    20    5   13 ar
    21   12   13 1 
    22    2    3 1 
    23   20   21 1 
    24   20   23 1 
