@<TRIPOS>MOLECULE
C:\Users\Praveer\PycharmProjects\pdb_to_mol2_converter\data\pdb\b6ga.pdb
   27    28     0     0     0
SMALL
GASTEIGER

@<TRIPOS>ATOM
      1 N9          1.3840    0.0120    0.0120 N.ar      1 B6G1        0.0000
      2 C8          1.7540    1.3440    0.0150 C.ar      1 B6G1        0.0000
      3 H8          2.8030    1.6470    0.0230 H         1 B6G1        0.0000
      4 N7          0.7300    2.1870    0.0080 N.ar      1 B6G1        0.0000
      5 C5         -0.3920    1.3400   -0.0040 C.ar      1 B6G1        0.0000
      6 C6         -1.7670    1.5930   -0.0270 C.3       1 B6G1        0.0000
      7 N6         -2.1320    2.9370   -0.0470 N.am      1 B6G1        0.0000
      8 H6         -1.3730    3.5730   -0.0690 H         1 B6G1        0.0000
      9 N1         -2.6190    0.5190   -0.0210 N.2       1 B6G1        0.0000
     10 C2         -2.1370   -0.7470   -0.0140 C.2       1 B6G1        0.0000
     11 H2         -2.8670   -1.5640   -0.0140 H         1 B6G1        0.0000
     12 N3         -0.8190   -1.0660   -0.0030 N.pl3     1 B6G1        0.0000
     13 C4         -0.0010   -0.0010    0.0020 C.ar      1 B6G1        0.0000
     14 C10        -3.3870    3.4360   -0.1360 C.2       1 B6G1        0.0000
     15 O10        -4.4250    2.8030   -0.2600 O.2       1 B6G1        0.0000
     16 N11        -3.3150    4.7890   -0.1260 N.am      1 B6G1        0.0000
     17 H11        -2.4290    5.2470   -0.1870 H         1 B6G1        0.0000
     18 C12        -4.3330    5.6400   -0.7100 C.3       1 B6G1        0.0000
     19 H121       -5.1080    5.8930    0.0420 H         1 B6G1        0.0000
     20 H122       -4.8170    5.1610   -1.5880 H         1 B6G1        0.0000
     21 C13        -3.6920    6.9490   -1.1920 C.2       1 B6G1        0.0000
     22 ODA        -4.4810    7.7930   -1.6870 O.co2     1 B6G1        0.0000
     23 ODB        -2.4420    7.0420   -1.0450 O.co2     1 B6G1        0.0000
     24 CM          2.2710   -1.1630    0.0170 C.3       1 B6G1        0.0000
     25 HM1         3.3470   -0.8810    0.0210 H         1 B6G1        0.0000
     26 HM2         2.0820   -1.7930   -0.8810 H         1 B6G1        0.0000
     27 HM3         2.0740   -1.7920    0.9140 H         1 B6G1        0.0000
@<TRIPOS>BOND
     1   22   21 ar
     2   20   18 1 
     3   21   23 ar
     4   21   18 1 
     5   26   24 1 
     6   18   16 1 
     7   18   19 1 
     8   15   14 2 
     9   17   16 1 
    10   14   16 am
    11   14    7 am
    12    8    7 1 
    13    7    6 1 
    14    6    9 1 
    15    6    5 1 
    16    9   10 2 
    17   10   11 1 
    18   10   12 1 
    19    5   13 ar
    20    5    4 ar
    21   12   13 1 
    22   13    1 ar
    23    4    2 ar
    24    1    2 ar
    25    1   24 1 
    26    2    3 1 
    27   24   25 1 
    28   24   27 1 
