@<TRIPOS>MOLECULE
C:\Users\Praveer\PycharmProjects\pdb_to_mol2_converter\data\pdb\b6hep.pdb
   27    27     0     0     0
SMALL
GASTEIGER

@<TRIPOS>ATOM
      1 C1          1.4830    0.0020   -0.0010 C.3       1 B6H1        0.0000
      2 H1          1.8210   -0.5080    0.9300 H         1 B6H1        0.0000
      3 O1          1.9610   -0.7270   -1.0910 O.3       1 B6H1        0.0000
      4 HO1         1.5370   -0.3310   -1.8580 H         1 B6H1        0.0000
      5 C5         -0.5140    0.6550    1.0920 C.3       1 B6H1        0.0000
      6 H5         -0.2040    0.1130    2.0160 H         1 B6H1        0.0000
      7 O5          0.0590    0.0130   -0.0560 O.3       1 B6H1        0.0000
      8 C2          2.0230    1.4280   -0.0430 C.3       1 B6H1        0.0000
      9 H2          3.1340    1.3730    0.0710 H         1 B6H1        0.0000
     10 O2          1.7480    2.1320   -1.2660 O.3       1 B6H1        0.0000
     11 HO2         2.5110    2.0830   -1.8530 H         1 B6H1        0.0000
     12 C3          1.4750    2.1760    1.1550 C.3       1 B6H1        0.0000
     13 H3          1.8540    1.6760    2.0800 H         1 B6H1        0.0000
     14 O3          1.9390    3.5250    1.1930 O.3       1 B6H1        0.0000
     15 HO3         1.8350    3.8890    0.3040 H         1 B6H1        0.0000
     16 C4         -0.0410    2.1030    1.1800 C.3       1 B6H1        0.0000
     17 H4         -0.4420    2.6470    0.2910 H         1 B6H1        0.0000
     18 O4         -0.5570    2.7200    2.3530 O.3       1 B6H1        0.0000
     19 HO4        -0.0790    3.5500    2.4790 H         1 B6H1        0.0000
     20 C6         -2.0520    0.5220    0.9500 C.3       1 B6H1        0.0000
     21 H61        -2.3740    1.0280    0.0130 H         1 B6H1        0.0000
     22 H62        -2.5300    1.0590    1.7990 H         1 B6H1        0.0000
     23 C7         -2.5720   -0.9200    0.9530 C.3       1 B6H1        0.0000
     24 H71        -3.6850   -0.9350    0.9220 H         1 B6H1        0.0000
     25 H72        -2.2380   -1.4520    1.8720 H         1 B6H1        0.0000
     26 O7         -2.0740   -1.5970   -0.1890 O.3       1 B6H1        0.0000
     27 HO7        -1.2140   -1.1800   -0.3600 H         1 B6H1        0.0000
@<TRIPOS>BOND
     1    4    3 1 
     2   11   10 1 
     3   10    8 1 
     4    3    1 1 
     5   27   26 1 
     6   26   23 1 
     7    7    1 1 
     8    7    5 1 
     9    8    1 1 
    10    8    9 1 
    11    8   12 1 
    12    1    2 1 
    13   21   20 1 
    14   17   16 1 
    15   15   14 1 
    16   24   23 1 
    17   20   23 1 
    18   20    5 1 
    19   20   22 1 
    20   23   25 1 
    21    5   16 1 
    22    5    6 1 
    23   12   16 1 
    24   12   14 1 
    25   12   13 1 
    26   16   18 1 
    27   18   19 1 
