@<TRIPOS>MOLECULE
C:\Users\Praveer\PycharmProjects\pdb_to_mol2_converter\data\pdb\b6ia.pdb
   31    32     0     0     0
SMALL
GASTEIGER

@<TRIPOS>ATOM
      1 N9          1.3740    0.0150   -0.0180 N.ar      1 B6I1        0.0000
      2 C8          1.7500    1.3390   -0.1430 C.ar      1 B6I1        0.0000
      3 H8          2.8000    1.6270   -0.2220 H         1 B6I1        0.0000
      4 N7          0.7360    2.1960   -0.1590 N.ar      1 B6I1        0.0000
      5 C5         -0.3840    1.3640   -0.0320 C.ar      1 B6I1        0.0000
      6 C6         -1.7600    1.6370    0.0120 C.3       1 B6I1        0.0000
      7 N6         -2.2230    2.9260   -0.1170 N.3       1 B6I1        0.0000
      8 H6         -1.5080    3.6250   -0.3060 H         1 B6I1        0.0000
      9 N1         -2.6230    0.5780    0.1520 N.2       1 B6I1        0.0000
     10 C2         -2.1460   -0.6930    0.2410 C.2       1 B6I1        0.0000
     11 H2         -2.8760   -1.5010    0.3490 H         1 B6I1        0.0000
     12 N3         -0.8340   -1.0320    0.1900 N.pl3     1 B6I1        0.0000
     13 C4         -0.0070    0.0180    0.0590 C.ar      1 B6I1        0.0000
     14 C12        -3.6540    3.3270   -0.1480 C.3       1 B6I1        0.0000
     15 H121       -4.2950    2.5200    0.2740 H         1 B6I1        0.0000
     16 H122       -3.9620    3.4780   -1.2090 H         1 B6I1        0.0000
     17 C13        -3.8340    4.5910    0.6510 C.2       1 B6I1        0.0000
     18 H13        -2.9200    5.0350    1.0710 H         1 B6I1        0.0000
     19 C14        -5.0080    5.2070    0.8900 C.2       1 B6I1        0.0000
     20 C15        -5.0540    6.4740    1.7000 C.3       1 B6I1        0.0000
     21 H151       -4.0530    6.8190    2.0400 H         1 B6I1        0.0000
     22 H152       -5.6820    6.3310    2.6060 H         1 B6I1        0.0000
     23 H153       -5.5070    7.2970    1.1060 H         1 B6I1        0.0000
     24 C16        -6.3200    4.6820    0.3700 C.3       1 B6I1        0.0000
     25 H161       -6.2330    3.7420   -0.2150 H         1 B6I1        0.0000
     26 H162       -6.8030    5.4340   -0.2890 H         1 B6I1        0.0000
     27 H163       -7.0140    4.4770    1.2140 H         1 B6I1        0.0000
     28 CM          2.2480   -1.1690    0.0240 C.3       1 B6I1        0.0000
     29 HM1         3.3270   -0.9010   -0.0020 H         1 B6I1        0.0000
     30 HM2         2.0340   -1.8330   -0.8440 H         1 B6I1        0.0000
     31 HM3         2.0560   -1.7550    0.9500 H         1 B6I1        0.0000
@<TRIPOS>BOND
     1   16   14 1 
     2   30   28 1 
     3    8    7 1 
     4   26   24 1 
     5    3    2 1 
     6   25   24 1 
     7    4    2 ar
     8    4    5 ar
     9   14    7 1 
    10   14   15 1 
    11   14   17 1 
    12    2    1 ar
    13    7    6 1 
    14    5    6 1 
    15    5   13 ar
    16    1   28 1 
    17    1   13 ar
    18   29   28 1 
    19    6    9 1 
    20   28   31 1 
    21   13   12 1 
    22    9   10 2 
    23   12   10 1 
    24   10   11 1 
    25   24   19 1 
    26   24   27 1 
    27   17   19 2 
    28   17   18 1 
    29   19   20 1 
    30   23   20 1 
    31   20   21 1 
    32   20   22 1 
