@<TRIPOS>MOLECULE
C:\Users\Praveer\PycharmProjects\pdb_to_mol2_converter\data\pdb\b6ma.pdb
   21    22     0     0     0
SMALL
GASTEIGER

@<TRIPOS>ATOM
      1 N9          1.3680    0.0090   -0.0020 N.ar      1 B6M1        0.0000
      2 C8          1.7160    1.3480    0.0110 C.ar      1 B6M1        0.0000
      3 H8          2.7600    1.6650   -0.0050 H         1 B6M1        0.0000
      4 N7          0.6810    2.1800    0.0460 N.ar      1 B6M1        0.0000
      5 C5         -0.4210    1.3150    0.0670 C.ar      1 B6M1        0.0000
      6 C6         -1.8040    1.5520    0.1210 C.3       1 B6M1        0.0000
      7 N6         -2.3120    2.8310    0.1660 N.3       1 B6M1        0.0000
      8 H6         -1.6440    3.5560   -0.0990 H         1 B6M1        0.0000
      9 N1         -2.6460    0.4660    0.1230 N.2       1 B6M1        0.0000
     10 C2         -2.1420   -0.7970    0.0830 C.2       1 B6M1        0.0000
     11 H2         -2.8580   -1.6250    0.0850 H         1 B6M1        0.0000
     12 N3         -0.8210   -1.1010    0.0340 N.pl3     1 B6M1        0.0000
     13 C4         -0.0140   -0.0250    0.0330 C.ar      1 B6M1        0.0000
     14 CM6        -3.6720    3.1500   -0.3190 C.3       1 B6M1        0.0000
     15 H61        -4.4220    2.4400    0.0970 H         1 B6M1        0.0000
     16 H62        -3.7220    3.0920   -1.4290 H         1 B6M1        0.0000
     17 H63        -3.9740    4.1710    0.0000 H         1 B6M1        0.0000
     18 CM          2.2710   -1.1530   -0.0470 C.3       1 B6M1        0.0000
     19 HM1         3.3440   -0.8570   -0.0490 H         1 B6M1        0.0000
     20 HM2         2.0770   -1.7570   -0.9610 H         1 B6M1        0.0000
     21 HM3         2.0950   -1.8080    0.8350 H         1 B6M1        0.0000
@<TRIPOS>BOND
     1   16   14 1 
     2   20   18 1 
     3   14   17 1 
     4   14   15 1 
     5   14    7 1 
     6    8    7 1 
     7   19   18 1 
     8   18    1 1 
     9   18   21 1 
    10    3    2 1 
    11    1    2 ar
    12    1   13 ar
    13    2    4 ar
    14   13   12 1 
    15   13    5 ar
    16   12   10 1 
    17    4    5 ar
    18    5    6 1 
    19   10   11 1 
    20   10    9 2 
    21    6    9 1 
    22    6    7 1 
