@<TRIPOS>MOLECULE
C:\Users\Praveer\PycharmProjects\pdb_to_mol2_converter\data\pdb\b70u.pdb
   24    24     0     0     0
SMALL
GASTEIGER

@<TRIPOS>ATOM
      1 N1          1.4100    0.0040   -0.0070 N.ar      1 B701        0.0000
      2 C2          2.1870    1.1760   -0.1840 C.ar      1 B701        0.0000
      3 S2          3.8300    1.2580   -0.3340 S.2       1 B701        0.0000
      4 N3          1.4370    2.3400   -0.2240 N.ar      1 B701        0.0000
      5 H3          1.9320    3.2060   -0.3410 H         1 B701        0.0000
      6 C4          0.0710    2.4730   -0.1060 C.ar      1 B701        0.0000
      7 O4         -0.4050    3.6060   -0.1420 O.2       1 B701        0.0000
      8 C5         -0.6710    1.2460    0.0520 C.ar      1 B701        0.0000
      9 C6          0.0410    0.0680    0.0990 C.ar      1 B701        0.0000
     10 H6         -0.4770   -0.8760    0.2710 H         1 B701        0.0000
     11 C5M        -2.1680    1.2860    0.1930 C.3       1 B701        0.0000
     12 H51        -2.6150    0.6050   -0.5600 H         1 B701        0.0000
     13 H52        -2.5420    2.3190    0.0220 H         1 B701        0.0000
     14 C8         -2.5590    0.8100    1.5830 C.2       1 B701        0.0000
     15 O9         -3.5100    1.5890    2.0860 O.3       1 B701        0.0000
     16 O8         -2.0890   -0.1740    2.1200 O.2       1 B701        0.0000
     17 C9         -3.9270    1.1800    3.4000 C.3       1 B701        0.0000
     18 H91        -3.0600    1.1200    4.0960 H         1 B701        0.0000
     19 H92        -4.4280    0.1870    3.3610 H         1 B701        0.0000
     20 H93        -4.6480    1.9200    3.8100 H         1 B701        0.0000
     21 CM          2.1020   -1.2970    0.0560 C.3       1 B701        0.0000
     22 HM1         2.8400   -1.3230    0.8920 H         1 B701        0.0000
     23 HM2         2.6600   -1.5060   -0.8860 H         1 B701        0.0000
     24 HM3         1.4010   -2.1480    0.2180 H         1 B701        0.0000
@<TRIPOS>BOND
     1   23   21 1 
     2   12   11 1 
     3    5    4 1 
     4    3    2 2 
     5    4    2 ar
     6    4    6 ar
     7    2    1 ar
     8    7    6 2 
     9    6    8 ar
    10    1   21 1 
    11    1    9 ar
    12   13   11 1 
    13    8    9 ar
    14    8   11 1 
    15   21   24 1 
    16   21   22 1 
    17    9   10 1 
    18   11   14 1 
    19   14   15 1 
    20   14   16 2 
    21   15   17 1 
    22   19   17 1 
    23   17   20 1 
    24   17   18 1 
