@<TRIPOS>MOLECULE
C:\Users\Praveer\PycharmProjects\pdb_to_mol2_converter\data\pdb\b7mg.pdb
   23    24     0     0     0
SMALL
GASTEIGER

@<TRIPOS>ATOM
      1 N9          1.3790   -0.0050    0.0080 N.pl3     1 B7M1        0.0000
      2 C8          1.8150    1.2550    0.0010 C.3       1 B7M1        0.0000
      3 H8          2.8500    1.5360    0.0020 H         1 B7M1        0.0000
      4 N7          0.7790    2.0980   -0.0070 N.pl3     1 B7M1        0.0000
      5 C5         -0.3900    1.3390   -0.0060 C.ar      1 B7M1        0.0000
      6 C6         -1.7560    1.6950   -0.0120 C.ar      1 B7M1        0.0000
      7 O6         -2.2630    2.8150   -0.0210 O.2       1 B7M1        0.0000
      8 N1         -2.5880    0.5840   -0.0050 N.ar      1 B7M1        0.0000
      9 H1         -3.5730    0.7670   -0.0080 H         1 B7M1        0.0000
     10 C2         -2.1670   -0.7350    0.0050 C.ar      1 B7M1        0.0000
     11 N2         -3.1130   -1.6740    0.0090 N.pl3     1 B7M1        0.0000
     12 H21        -4.0890   -1.4800    0.0060 H         1 B7M1        0.0000
     13 H22        -2.8180   -2.6280    0.0150 H         1 B7M1        0.0000
     14 N3         -0.8560   -1.0440    0.0090 N.ar      1 B7M1        0.0000
     15 C4         -0.0070   -0.0030    0.0050 C.ar      1 B7M1        0.0000
     16 CM7         0.8500    3.5760   -0.0130 C.3       1 B7M1        0.0000
     17 H71         0.3740    3.9580   -0.9440 H         1 B7M1        0.0000
     18 H72         1.9040    3.9290    0.0340 H         1 B7M1        0.0000
     19 H73         0.2910    3.9690    0.8650 H         1 B7M1        0.0000
     20 CM          2.2310   -1.2130    0.0160 C.3       1 B7M1        0.0000
     21 HM1         2.0340   -1.7860    0.9490 H         1 B7M1        0.0000
     22 HM2         3.3100   -0.9470   -0.0360 H         1 B7M1        0.0000
     23 HM3         1.9650   -1.8460   -0.8600 H         1 B7M1        0.0000
@<TRIPOS>BOND
     1   17   16 1 
     2   23   20 1 
     3   22   20 1 
     4    7    6 2 
     5   16    4 1 
     6   16   18 1 
     7   16   19 1 
     8    6    5 ar
     9    6    8 ar
    10    9    8 1 
    11    4    5 1 
    12    4    2 1 
    13    5   15 ar
    14    8   10 ar
    15    2    3 1 
    16    2    1 1 
    17   10   11 1 
    18   10   14 ar
    19   15    1 1 
    20   15   14 ar
    21   12   11 1 
    22    1   20 1 
    23   11   13 1 
    24   20   21 1 
