@<TRIPOS>MOLECULE
C:\Users\Praveer\PycharmProjects\pdb_to_mol2_converter\data\pdb\b8leg.pdb
   44    44     0     0     0
SMALL
GASTEIGER

@<TRIPOS>ATOM
      1 C1          2.3630    1.2160    0.0310 C.2       1 B8L1        0.0000
      2 O11         3.1800    1.5050   -0.8930 O.co2     1 B8L1        0.0000
      3 O12         1.9090    1.9760    0.9280 O.co2     1 B8L1        0.0000
      4 C2          1.6440   -0.1710   -0.1110 C.3       1 B8L1        0.0000
      5 O2          2.1180   -0.8520   -1.2410 O.3       1 B8L1        0.0000
      6 HO2         2.8000   -0.2140   -1.5110 H         1 B8L1        0.0000
      7 C6          1.4560   -2.2450    1.1180 C.3       1 B8L1        0.0000
      8 H6          1.7980   -2.8150    0.2280 H         1 B8L1        0.0000
      9 O6          2.0070   -0.9150    1.0560 O.3       1 B8L1        0.0000
     10 C3          0.1340   -0.0350   -0.1380 C.3       1 B8L1        0.0000
     11 H31        -0.1520    0.5300   -1.0520 H         1 B8L1        0.0000
     12 H32        -0.1750    0.5760    0.7420 H         1 B8L1        0.0000
     13 C4         -0.5450   -1.3570   -0.0890 C.3       1 B8L1        0.0000
     14 H4         -0.3050   -1.9360   -1.0160 H         1 B8L1        0.0000
     15 O4         -1.9440   -1.1290   -0.0470 O.3       1 B8L1        0.0000
     16 HO4        -2.1540   -0.4910   -0.7350 H         1 B8L1        0.0000
     17 C5         -0.0870   -2.1620    1.1120 C.3       1 B8L1        0.0000
     18 H5         -0.3610   -1.5710    2.0200 H         1 B8L1        0.0000
     19 N51        -0.8510   -3.3960    1.2060 N.am      1 B8L1        0.0000
     20 HN51       -1.6570   -3.3380    1.7790 H         1 B8L1        0.0000
     21 C51        -0.6880   -4.4800    0.4350 C.2       1 B8L1        0.0000
     22 O51         0.2590   -4.6310   -0.3220 O.2       1 B8L1        0.0000
     23 CT51       -1.7400   -5.5500    0.5730 C.3       1 B8L1        0.0000
     24 HT51       -2.7530   -5.0990    0.5620 H         1 B8L1        0.0000
     25 HT52       -1.5930   -6.1050    1.5210 H         1 B8L1        0.0000
     26 HT53       -1.6500   -6.2560   -0.2800 H         1 B8L1        0.0000
     27 C7          2.1570   -2.8410    2.3550 C.3       1 B8L1        0.0000
     28 H7          1.7550   -2.2880    3.2390 H         1 B8L1        0.0000
     29 N71         3.5760   -2.5420    2.2480 N.am      1 B8L1        0.0000
     30 HN71        3.9200   -2.5610    1.3180 H         1 B8L1        0.0000
     31 C71         4.3760   -2.0900    3.2200 C.2       1 B8L1        0.0000
     32 O71         4.0310   -1.9860    4.3910 O.2       1 B8L1        0.0000
     33 CT71        5.7700   -1.7170    2.7830 C.3       1 B8L1        0.0000
     34 HT71        5.7130   -0.9610    1.9710 H         1 B8L1        0.0000
     35 HT72        6.2990   -2.6190    2.4120 H         1 B8L1        0.0000
     36 HT73        6.3240   -1.2890    3.6430 H         1 B8L1        0.0000
     37 C8          1.8950   -4.3350    2.5960 C.3       1 B8L1        0.0000
     38 H8          0.8140   -4.5060    2.7750 H         1 B8L1        0.0000
     39 O8          2.3290   -5.1320    1.4990 O.3       1 B8L1        0.0000
     40 HO8         1.7250   -4.9440    0.7600 H         1 B8L1        0.0000
     41 C9          2.6250   -4.8380    3.8550 C.3       1 B8L1        0.0000
     42 H91         2.3770   -4.1970    4.7270 H         1 B8L1        0.0000
     43 H92         3.7250   -4.8180    3.7070 H         1 B8L1        0.0000
     44 H93         2.3290   -5.8840    4.0780 H         1 B8L1        0.0000
@<TRIPOS>BOND
     1    6    5 1 
     2    5    4 1 
     3   11   10 1 
     4   14   13 1 
     5    2    1 ar
     6   16   15 1 
     7   22   21 2 
     8   26   23 1 
     9   10    4 1 
    10   10   13 1 
    11   10   12 1 
    12    4    1 1 
    13    4    9 1 
    14   13   15 1 
    15   13   17 1 
    16    1    3 ar
    17    8    7 1 
    18   21   23 1 
    19   21   19 am
    20   24   23 1 
    21   23   25 1 
    22   40   39 1 
    23    9    7 1 
    24   17    7 1 
    25   17   19 1 
    26   17   18 1 
    27    7   27 1 
    28   19   20 1 
    29   30   29 1 
    30   39   37 1 
    31   34   33 1 
    32   29   27 1 
    33   29   31 am
    34   27   37 1 
    35   27   28 1 
    36   35   33 1 
    37   37   38 1 
    38   37   41 1 
    39   33   31 1 
    40   33   36 1 
    41   31   32 2 
    42   43   41 1 
    43   41   44 1 
    44   41   42 1 
