@<TRIPOS>MOLECULE
C:\Users\Praveer\PycharmProjects\pdb_to_mol2_converter\data\pdb\b8ma.pdb
   21    22     0     0     0
SMALL
GASTEIGER

@<TRIPOS>ATOM
      1 N9          1.3810    0.0050    0.0030 N.ar      1 B8M1        0.0000
      2 C8          1.7530    1.3410   -0.0090 C.ar      1 B8M1        0.0000
      3 N7          0.7360    2.1850   -0.0200 N.ar      1 B8M1        0.0000
      4 C5         -0.3830    1.3500   -0.0150 C.ar      1 B8M1        0.0000
      5 C6         -1.7670    1.6130   -0.0220 C.3       1 B8M1        0.0000
      6 N6         -2.3080    2.8460   -0.0360 N.3       1 B8M1        0.0000
      7 H61        -1.7360    3.6620   -0.0420 H         1 B8M1        0.0000
      8 H62        -3.3010    2.9110   -0.0390 H         1 B8M1        0.0000
      9 N1         -2.6300    0.5620   -0.0140 N.2       1 B8M1        0.0000
     10 C2         -2.1490   -0.7130    0.0000 C.2       1 B8M1        0.0000
     11 H2         -2.8790   -1.5270    0.0060 H         1 B8M1        0.0000
     12 N3         -0.8330   -1.0510    0.0070 N.pl3     1 B8M1        0.0000
     13 C4         -0.0000    0.0040   -0.0010 C.ar      1 B8M1        0.0000
     14 C8M         3.1790    1.7750   -0.0100 C.3       1 B8M1        0.0000
     15 H81         3.6900    1.3870   -0.9150 H         1 B8M1        0.0000
     16 H82         3.6900    1.3940    0.8980 H         1 B8M1        0.0000
     17 H83         3.2370    2.8840   -0.0140 H         1 B8M1        0.0000
     18 CM          2.2400   -1.1920    0.0180 C.3       1 B8M1        0.0000
     19 HM1         3.3260   -0.9560    0.0220 H         1 B8M1        0.0000
     20 HM2         2.0280   -1.8210   -0.8750 H         1 B8M1        0.0000
     21 HM3         2.0190   -1.8060    0.9190 H         1 B8M1        0.0000
@<TRIPOS>BOND
     1   15   14 1 
     2   20   18 1 
     3    7    6 1 
     4    8    6 1 
     5    6    5 1 
     6    5    4 1 
     7    5    9 1 
     8    3    4 ar
     9    3    2 ar
    10    4   13 ar
    11    9   10 2 
    12   17   14 1 
    13   14    2 1 
    14   14   16 1 
    15    2    1 ar
    16   13    1 ar
    17   13   12 1 
    18   10   11 1 
    19   10   12 1 
    20    1   18 1 
    21   18   19 1 
    22   18   21 1 
