@<TRIPOS>MOLECULE
C:\Users\Praveer\PycharmProjects\pdb_to_mol2_converter\data\pdb\bab1.pdb
   84    87     0     0     0
SMALL
GASTEIGER

@<TRIPOS>ATOM
      1 C3          2.1220    1.4190   -0.0170 C.3       1 BAB1        0.0000
      2 O3          3.5110    1.3090   -0.2790 O.3       1 BAB1        0.0000
      3 H3'         3.5680    1.0200   -1.1930 H         1 BAB1        0.0000
      4 H3          1.9610    1.8940    0.9780 H         1 BAB1        0.0000
      5 C4          1.4670    2.2880   -1.1070 C.3       1 BAB1        0.0000
      6 H4A         1.9000    2.0160   -2.0920 H         1 BAB1        0.0000
      7 H4B         1.7330    3.3510   -0.9220 H         1 BAB1        0.0000
      8 C5         -0.0850    2.1700   -1.2110 C.3       1 BAB1        0.0000
      9 H5         -0.4740    2.6580   -0.2840 H         1 BAB1        0.0000
     10 C6         -0.5960    3.0110   -2.4100 C.3       1 BAB1        0.0000
     11 H6A        -0.0330    3.9680   -2.4550 H         1 BAB1        0.0000
     12 H6B        -1.6590    3.2760   -2.2230 H         1 BAB1        0.0000
     13 C7         -0.5250    2.2930   -3.7760 C.3       1 BAB1        0.0000
     14 O7          0.7670    2.5090   -4.3320 O.3       1 BAB1        0.0000
     15 H7'         0.7600    2.0440   -5.1720 H         1 BAB1        0.0000
     16 H7         -1.2380    2.8170   -4.4570 H         1 BAB1        0.0000
     17 C8         -0.9370    0.8210   -3.6990 C.3       1 BAB1        0.0000
     18 H8         -2.0390    0.7810   -3.5980 H         1 BAB1        0.0000
     19 C14        -0.5260    0.1200   -5.0260 C.3       1 BAB1        0.0000
     20 H14         0.5870    0.0820   -5.0730 H         1 BAB1        0.0000
     21 C15        -1.0550    0.7440   -6.3170 C.3       1 BAB1        0.0000
     22 H15A       -0.4280    1.5770   -6.6610 H         1 BAB1        0.0000
     23 H15B       -2.0720    1.1410   -6.1770 H         1 BAB1        0.0000
     24 C16        -1.0550   -0.4350   -7.3130 C.3       1 BAB1        0.0000
     25 H16A       -0.4540   -0.1980   -8.2030 H         1 BAB1        0.0000
     26 H16B       -2.0720   -0.6310   -7.6820 H         1 BAB1        0.0000
     27 C17        -0.4800   -1.6660   -6.5610 C.3       1 BAB1        0.0000
     28 H17         0.6190   -1.6160   -6.5260 H         1 BAB1        0.0000
     29 C13        -1.0270   -1.3360   -5.1240 C.3       1 BAB1        0.0000
     30 C18        -2.5720   -1.4840   -5.0550 C.3       1 BAB1        0.0000
     31 H18A       -3.0720   -0.5180   -4.8570 H         1 BAB1        0.0000
     32 H18B       -2.8600   -2.1940   -4.2530 H         1 BAB1        0.0000
     33 H18C       -2.9850   -1.8790   -6.0020 H         1 BAB1        0.0000
     34 C12        -0.3800   -2.1220   -3.9750 C.3       1 BAB1        0.0000
     35 H12A        0.7210   -2.1510   -4.1310 H         1 BAB1        0.0000
     36 H12B       -0.7510   -3.1630   -3.9270 H         1 BAB1        0.0000
     37 C11        -0.6740   -1.4520   -2.6160 C.3       1 BAB1        0.0000
     38 H11A       -0.1160   -2.0180   -1.8400 H         1 BAB1        0.0000
     39 H11B       -1.7560   -1.5590   -2.3950 H         1 BAB1        0.0000
     40 C9         -0.2800    0.0490   -2.5500 C.3       1 BAB1        0.0000
     41 H9          0.8210    0.1010   -2.7070 H         1 BAB1        0.0000
     42 C10        -0.6140    0.7380   -1.2070 C.3       1 BAB1        0.0000
     43 C19        -2.1390    0.7630   -0.9180 C.3       1 BAB1        0.0000
     44 H19A       -2.7020    1.3230   -1.6880 H         1 BAB1        0.0000
     45 H19B       -2.3300    1.2540    0.0590 H         1 BAB1        0.0000
     46 H19C       -2.5450   -0.2670   -0.8610 H         1 BAB1        0.0000
     47 C1          0.0150   -0.0020    0.0070 C.3       1 BAB1        0.0000
     48 H1A        -0.3710   -1.0400    0.0660 H         1 BAB1        0.0000
     49 H1B        -0.3220    0.5170    0.9330 H         1 BAB1        0.0000
     50 C2          1.5480   -0.0050    0.0030 C.3       1 BAB1        0.0000
     51 H2A         1.9140   -0.5240    0.9170 H         1 BAB1        0.0000
     52 H2B         1.9150   -0.5810   -0.8730 H         1 BAB1        0.0000
     53 C20        -0.8820   -3.0080   -7.2590 C.3       1 BAB1        0.0000
     54 H20        -1.9650   -2.9800   -7.5080 H         1 BAB1        0.0000
     55 C21        -0.6150   -4.2370   -6.3710 C.3       1 BAB1        0.0000
     56 H21A       -1.3370   -4.2700   -5.5310 H         1 BAB1        0.0000
     57 H21B        0.4210   -4.2140   -5.9730 H         1 BAB1        0.0000
     58 H21C       -0.7510   -5.1790   -6.9400 H         1 BAB1        0.0000
     59 C22        -0.1010   -3.1210   -8.5960 C.3       1 BAB1        0.0000
     60 H22A        0.9800   -3.2380   -8.3570 H         1 BAB1        0.0000
     61 H22B       -0.2270   -2.1630   -9.1480 H         1 BAB1        0.0000
     62 C23        -0.5820   -4.2760   -9.5140 C.3       1 BAB1        0.0000
     63 H23A       -1.6750   -4.1770   -9.6870 H         1 BAB1        0.0000
     64 H23B       -0.3970   -5.2600   -9.0350 H         1 BAB1        0.0000
     65 C24         0.0910   -4.3060  -10.8580 C.2       1 BAB1        0.0000
     66 O24        -0.2510   -5.1310  -11.6990 O.2       1 BAB1        0.0000
     67 N           1.0510   -3.4000  -11.0660 N.am      1 BAB1        0.0000
     68 HN          1.4160   -2.7990  -10.3360 H         1 BAB1        0.0000
     69 CC1         1.9610   -3.2520  -12.1780 C.3       1 BAB1        0.0000
     70 HC1         2.4240   -4.2340  -12.4130 H         1 BAB1        0.0000
     71 CA          3.0660   -2.3220  -11.6200 C.2       1 BAB1        0.0000
     72 OA1         4.0160   -2.0270  -12.3830 O.co2     1 BAB1        0.0000
     73 OA2         2.8630   -1.9320  -10.4310 O.co2     1 BAB1        0.0000
     74 CC2         1.2830   -2.6620  -13.4440 C.3       1 BAB1        0.0000
     75 HC2A        0.4550   -3.3560  -13.7170 H         1 BAB1        0.0000
     76 HC2B        2.0060   -2.6870  -14.2880 H         1 BAB1        0.0000
     77 CC3         0.6770   -1.2440  -13.2530 C.3       1 BAB1        0.0000
     78 HC3A        0.6160   -0.9860  -12.1760 H         1 BAB1        0.0000
     79 HC3B       -0.3610   -1.2500  -13.6540 H         1 BAB1        0.0000
     80 CG          1.4120   -0.1500  -13.9750 C.2       1 BAB1        0.0000
     81 OG          0.8070    0.6010  -14.7420 O.2       1 BAB1        0.0000
     82 NT          2.7390   -0.0120  -13.7510 N.am      1 BAB1        0.0000
     83 HT1         3.2200   -0.7190  -13.2030 H         1 BAB1        0.0000
     84 HT2         3.2330    0.6790  -14.2620 H         1 BAB1        0.0000
@<TRIPOS>BOND
     1   81   80 2 
     2   76   74 1 
     3   84   82 1 
     4   80   82 am
     5   80   77 1 
     6   82   83 1 
     7   75   74 1 
     8   79   77 1 
     9   74   77 1 
    10   74   69 1 
    11   77   78 1 
    12   70   69 1 
    13   72   71 ar
    14   69   71 1 
    15   69   67 1 
    16   66   65 2 
    17   71   73 ar
    18   67   65 am
    19   67   68 1 
    20   65   62 1 
    21   63   62 1 
    22   62   64 1 
    23   62   59 1 
    24   61   59 1 
    25   59   60 1 
    26   59   53 1 
    27   25   24 1 
    28   26   24 1 
    29   54   53 1 
    30   24   27 1 
    31   24   21 1 
    32   53   27 1 
    33   53   55 1 
    34   58   55 1 
    35   22   21 1 
    36   27   28 1 
    37   27   29 1 
    38   55   57 1 
    39   55   56 1 
    40   21   23 1 
    41   21   19 1 
    42   33   30 1 
    43   15   14 1 
    44   29   30 1 
    45   29   19 1 
    46   29   34 1 
    47   20   19 1 
    48   30   31 1 
    49   30   32 1 
    50   19   17 1 
    51   16   13 1 
    52   14   13 1 
    53   35   34 1 
    54   34   36 1 
    55   34   37 1 
    56   13   17 1 
    57   13   10 1 
    58   17   18 1 
    59   17   40 1 
    60   41   40 1 
    61   37   40 1 
    62   37   39 1 
    63   37   38 1 
    64   40   42 1 
    65   11   10 1 
    66   10   12 1 
    67   10    8 1 
    68    6    5 1 
    69   44   43 1 
    70    8   42 1 
    71    8    5 1 
    72    8    9 1 
    73   42   43 1 
    74   42   47 1 
    75    3    2 1 
    76    5    7 1 
    77    5    1 1 
    78   43   46 1 
    79   43   45 1 
    80   52   50 1 
    81    2    1 1 
    82    1   50 1 
    83    1    4 1 
    84   50   47 1 
    85   50   51 1 
    86   47   48 1 
    87   47   49 1 
