@<TRIPOS>MOLECULE
C:\Users\Praveer\PycharmProjects\pdb_to_mol2_converter\data\pdb\bab2.pdb
   84    87     0     0     0
SMALL
GASTEIGER

@<TRIPOS>ATOM
      1 C3          2.1700    1.3740   -0.1160 C.3       1 BAB1        0.0000
      2 O3          3.5420    1.2360   -0.4440 O.3       1 BAB1        0.0000
      3 H3'         3.5580    0.7930   -1.2950 H         1 BAB1        0.0000
      4 H3          2.0660    1.8510    0.8860 H         1 BAB1        0.0000
      5 C4          1.4780    2.2570   -1.1730 C.3       1 BAB1        0.0000
      6 H4A         1.8640    1.9890   -2.1800 H         1 BAB1        0.0000
      7 H4B         1.7650    3.3150   -0.9870 H         1 BAB1        0.0000
      8 C5         -0.0750    2.1580   -1.2000 C.3       1 BAB1        0.0000
      9 H5         -0.4210    2.6430   -0.2540 H         1 BAB1        0.0000
     10 C6         -0.6290    3.0030   -2.3670 C.3       1 BAB1        0.0000
     11 H6A        -0.0840    3.9700   -2.4170 H         1 BAB1        0.0000
     12 H6B        -1.6920    3.2500   -2.1460 H         1 BAB1        0.0000
     13 C7         -0.5530    2.3170   -3.7440 C.3       1 BAB1        0.0000
     14 O7         -1.4190    3.0550   -4.5970 O.3       1 BAB1        0.0000
     15 H7'        -1.3730    2.5990   -5.4420 H         1 BAB1        0.0000
     16 H7          0.4950    2.3660   -4.1180 H         1 BAB1        0.0000
     17 C8         -1.0150    0.8560   -3.6910 C.3       1 BAB1        0.0000
     18 H8         -2.1150    0.8170   -3.5910 H         1 BAB1        0.0000
     19 C14        -0.5650    0.1540   -5.0140 C.3       1 BAB1        0.0000
     20 H14         0.5490    0.1470   -5.0330 H         1 BAB1        0.0000
     21 C15        -1.0570    0.7450   -6.3380 C.3       1 BAB1        0.0000
     22 H15A       -0.4230    1.5810   -6.6670 H         1 BAB1        0.0000
     23 H15B       -2.0900    1.1160   -6.2470 H         1 BAB1        0.0000
     24 C16        -1.0040   -0.4360   -7.3250 C.3       1 BAB1        0.0000
     25 H16A       -0.3640   -0.1980   -8.1880 H         1 BAB1        0.0000
     26 H16B       -2.0020   -0.6410   -7.7390 H         1 BAB1        0.0000
     27 C17        -0.4560   -1.6550   -6.5410 C.3       1 BAB1        0.0000
     28 H17         0.6420   -1.6050   -6.4720 H         1 BAB1        0.0000
     29 C13        -1.0490   -1.3110   -5.1250 C.3       1 BAB1        0.0000
     30 C18        -2.5950   -1.4650   -5.0990 C.3       1 BAB1        0.0000
     31 H18A       -3.1000   -0.5110   -4.8560 H         1 BAB1        0.0000
     32 H18B       -2.8970   -2.2160   -4.3420 H         1 BAB1        0.0000
     33 H18C       -2.9890   -1.8070   -6.0740 H         1 BAB1        0.0000
     34 C12        -0.4390   -2.1020   -3.9620 C.3       1 BAB1        0.0000
     35 H12A        0.6640   -2.1470   -4.0890 H         1 BAB1        0.0000
     36 H12B       -0.8270   -3.1380   -3.9200 H         1 BAB1        0.0000
     37 C11        -0.7680   -1.4290   -2.6170 C.3       1 BAB1        0.0000
     38 H11A       -0.2440   -2.0050   -1.8250 H         1 BAB1        0.0000
     39 H11B       -1.8580   -1.5120   -2.4280 H         1 BAB1        0.0000
     40 C9         -0.3470    0.0630   -2.5520 C.3       1 BAB1        0.0000
     41 H9          0.7510    0.0900   -2.7320 H         1 BAB1        0.0000
     42 C10        -0.6260    0.7370   -1.1920 C.3       1 BAB1        0.0000
     43 C19        -2.1430    0.7670   -0.8680 C.3       1 BAB1        0.0000
     44 H19A       -2.7220    1.3080   -1.6410 H         1 BAB1        0.0000
     45 H19B       -2.3160    1.2790    0.1010 H         1 BAB1        0.0000
     46 H19C       -2.5460   -0.2620   -0.7840 H         1 BAB1        0.0000
     47 C1          0.0380   -0.0150   -0.0030 C.3       1 BAB1        0.0000
     48 H1A        -0.3600   -1.0470    0.0720 H         1 BAB1        0.0000
     49 H1B        -0.2590    0.5070    0.9350 H         1 BAB1        0.0000
     50 C2          1.5700   -0.0400   -0.0650 C.3       1 BAB1        0.0000
     51 H2A         1.9620   -0.5600    0.8380 H         1 BAB1        0.0000
     52 H2B         1.8930   -0.6300   -0.9490 H         1 BAB1        0.0000
     53 C20        -0.8430   -3.0040   -7.2350 C.3       1 BAB1        0.0000
     54 H20        -1.9260   -2.9890   -7.4850 H         1 BAB1        0.0000
     55 C21        -0.5630   -4.2270   -6.3410 C.3       1 BAB1        0.0000
     56 H21A       -1.3070   -4.2820   -5.5220 H         1 BAB1        0.0000
     57 H21B        0.4610   -4.1730   -5.9160 H         1 BAB1        0.0000
     58 H21C       -0.6550   -5.1710   -6.9130 H         1 BAB1        0.0000
     59 C22        -0.0610   -3.1170   -8.5720 C.3       1 BAB1        0.0000
     60 H22A        1.0200   -3.2350   -8.3350 H         1 BAB1        0.0000
     61 H22B       -0.1870   -2.1610   -9.1270 H         1 BAB1        0.0000
     62 C23        -0.5500   -4.2730   -9.4850 C.3       1 BAB1        0.0000
     63 H23A       -1.6450   -4.1710   -9.6510 H         1 BAB1        0.0000
     64 H23B       -0.3660   -5.2560   -9.0060 H         1 BAB1        0.0000
     65 C24         0.1120   -4.3080  -10.8330 C.2       1 BAB1        0.0000
     66 O24        -0.2300   -5.1420  -11.6650 O.2       1 BAB1        0.0000
     67 N           1.0630   -3.3970  -11.0550 N.am      1 BAB1        0.0000
     68 HN          1.4290   -2.7890  -10.3310 H         1 BAB1        0.0000
     69 CC1         1.9680   -3.2540  -12.1710 C.3       1 BAB1        0.0000
     70 HC1         2.4290   -4.2370  -12.4060 H         1 BAB1        0.0000
     71 CA          3.0760   -2.3220  -11.6210 C.2       1 BAB1        0.0000
     72 OA1         4.0240   -2.0340  -12.3880 O.co2     1 BAB1        0.0000
     73 OA2         2.8760   -1.9240  -10.4340 O.co2     1 BAB1        0.0000
     74 CC2         1.2830   -2.6680  -13.4340 C.3       1 BAB1        0.0000
     75 HC2A        0.4550   -3.3640  -13.7030 H         1 BAB1        0.0000
     76 HC2B        2.0030   -2.6930  -14.2820 H         1 BAB1        0.0000
     77 CC3         0.6770   -1.2510  -13.2420 C.3       1 BAB1        0.0000
     78 HC3A        0.6220   -0.9920  -12.1640 H         1 BAB1        0.0000
     79 HC3B       -0.3640   -1.2570  -13.6350 H         1 BAB1        0.0000
     80 CG          1.4080   -0.1570  -13.9680 C.2       1 BAB1        0.0000
     81 OG          0.7990    0.5920  -14.7320 O.2       1 BAB1        0.0000
     82 NT          2.7350   -0.0210  -13.7500 N.am      1 BAB1        0.0000
     83 HT1         3.2190   -0.7270  -13.2030 H         1 BAB1        0.0000
     84 HT2         3.2280    0.6670  -14.2670 H         1 BAB1        0.0000
@<TRIPOS>BOND
     1   81   80 2 
     2   76   74 1 
     3   84   82 1 
     4   80   82 am
     5   80   77 1 
     6   82   83 1 
     7   75   74 1 
     8   79   77 1 
     9   74   77 1 
    10   74   69 1 
    11   77   78 1 
    12   70   69 1 
    13   72   71 ar
    14   69   71 1 
    15   69   67 1 
    16   66   65 2 
    17   71   73 ar
    18   67   65 am
    19   67   68 1 
    20   65   62 1 
    21   63   62 1 
    22   62   64 1 
    23   62   59 1 
    24   61   59 1 
    25   59   60 1 
    26   59   53 1 
    27   25   24 1 
    28   26   24 1 
    29   54   53 1 
    30   24   27 1 
    31   24   21 1 
    32   53   27 1 
    33   53   55 1 
    34   58   55 1 
    35   22   21 1 
    36   27   28 1 
    37   27   29 1 
    38   55   57 1 
    39   55   56 1 
    40   21   23 1 
    41   21   19 1 
    42   33   30 1 
    43   15   14 1 
    44   29   30 1 
    45   29   19 1 
    46   29   34 1 
    47   30   31 1 
    48   30   32 1 
    49   20   19 1 
    50   19   17 1 
    51   14   13 1 
    52   16   13 1 
    53   35   34 1 
    54   34   36 1 
    55   34   37 1 
    56   13   17 1 
    57   13   10 1 
    58   17   18 1 
    59   17   40 1 
    60   41   40 1 
    61   37   40 1 
    62   37   39 1 
    63   37   38 1 
    64   40   42 1 
    65   11   10 1 
    66   10   12 1 
    67   10    8 1 
    68    6    5 1 
    69   44   43 1 
    70    3    2 1 
    71    8   42 1 
    72    8    5 1 
    73    8    9 1 
    74   42   43 1 
    75   42   47 1 
    76    5    7 1 
    77    5    1 1 
    78   52   50 1 
    79   43   46 1 
    80   43   45 1 
    81    2    1 1 
    82    1   50 1 
    83    1    4 1 
    84   50   47 1 
    85   50   51 1 
    86   47   48 1 
    87   47   49 1 
