@<TRIPOS>MOLECULE
C:\Users\Praveer\PycharmProjects\pdb_to_mol2_converter\data\pdb\bald.pdb
   14    14     0     0     0
SMALL
GASTEIGER

@<TRIPOS>ATOM
      1 HA          1.7280   -1.0010    0.0110 H         1 BAL1        0.0000
      2 C           1.1950   -0.0280    0.0150 C.2       1 BAL1        0.0000
      3 O          -0.0210   -0.0480    0.0510 O.2       1 BAL1        0.0000
      4 CG          2.0630    1.1780   -0.0230 C.ar      1 BAL1        0.0000
      5 CD1         1.4970    2.4630   -0.0210 C.ar      1 BAL1        0.0000
      6 HD1         0.4230    2.5780    0.0090 H         1 BAL1        0.0000
      7 CE1         2.3220    3.5960   -0.0570 C.ar      1 BAL1        0.0000
      8 HE1         1.8840    4.5840   -0.0550 H         1 BAL1        0.0000
      9 CZ          3.7140    3.4470   -0.0960 C.ar      1 BAL1        0.0000
     10 HZ          4.3500    4.3200   -0.1240 H         1 BAL1        0.0000
     11 CD2         3.4590    1.0330   -0.0620 C.ar      1 BAL1        0.0000
     12 HD2         3.9030    0.0480   -0.0640 H         1 BAL1        0.0000
     13 CE2         4.2840    2.1660   -0.0980 C.ar      1 BAL1        0.0000
     14 HE2         5.3580    2.0540   -0.1280 H         1 BAL1        0.0000
@<TRIPOS>BOND
     1   14   13 1 
     2   10    9 1 
     3   13    9 ar
     4   13   11 ar
     5    9    7 ar
     6   12   11 1 
     7   11    4 ar
     8    7    8 1 
     9    7    5 ar
    10    4    5 ar
    11    4    2 1 
    12    5    6 1 
    13    1    2 1 
    14    2    3 2 
