@<TRIPOS>MOLECULE
C:\Users\Praveer\PycharmProjects\pdb_to_mol2_converter\data\pdb\ball.pdb
   24    24     0     0     0
SMALL
GASTEIGER

@<TRIPOS>ATOM
      1 C1          1.3290    0.0050   -0.0480 C.3       1 BAL1        0.0000
      2 H1          1.7780   -0.5840    0.7850 H         1 BAL1        0.0000
      3 O1          1.6950   -0.5740   -1.2710 O.3       1 BAL1        0.0000
      4 HO1         1.3190   -1.4570   -1.2800 H         1 BAL1        0.0000
      5 C5         -0.5500    0.5020    1.3130 C.3       1 BAL1        0.0000
      6 H5         -0.1020   -0.1190    2.1250 H         1 BAL1        0.0000
      7 O5         -0.0940    0.0150    0.0410 O.3       1 BAL1        0.0000
      8 C2          1.8080    1.4490   -0.0070 C.3       1 BAL1        0.0000
      9 H2          1.3030    1.9970   -0.8390 H         1 BAL1        0.0000
     10 O2          3.2220    1.5740   -0.2060 O.3       1 BAL1        0.0000
     11 HO2         3.4400    1.1180   -1.0300 H         1 BAL1        0.0000
     12 C3          1.3860    2.0870    1.3000 C.3       1 BAL1        0.0000
     13 H3          1.6390    3.1750    1.2580 H         1 BAL1        0.0000
     14 O3          2.1020    1.5270    2.4020 O.3       1 BAL1        0.0000
     15 HO3         3.0430    1.5840    2.1810 H         1 BAL1        0.0000
     16 C4         -0.1130    1.9570    1.4850 C.3       1 BAL1        0.0000
     17 H4         -0.6190    2.5560    0.6900 H         1 BAL1        0.0000
     18 O4         -0.5210    2.4830    2.7440 O.3       1 BAL1        0.0000
     19 HO4         0.1830    2.2560    3.3700 H         1 BAL1        0.0000
     20 C6         -2.0490    0.3050    1.3230 C.3       1 BAL1        0.0000
     21 H61        -2.2920   -0.7480    1.0530 H         1 BAL1        0.0000
     22 H62        -2.5290    0.9680    0.5690 H         1 BAL1        0.0000
     23 O6         -2.5990    0.5730    2.6110 O.3       1 BAL1        0.0000
     24 HO6        -2.2560    1.4310    2.9090 H         1 BAL1        0.0000
@<TRIPOS>BOND
     1    4    3 1 
     2    3    1 1 
     3   11   10 1 
     4    9    8 1 
     5   10    8 1 
     6    1    8 1 
     7    1    7 1 
     8    1    2 1 
     9    8   12 1 
    10    7    5 1 
    11   22   20 1 
    12   17   16 1 
    13   21   20 1 
    14   13   12 1 
    15   12   16 1 
    16   12   14 1 
    17    5   20 1 
    18    5   16 1 
    19    5    6 1 
    20   20   23 1 
    21   16   18 1 
    22   15   14 1 
    23   23   24 1 
    24   18   19 1 
