@<TRIPOS>MOLECULE
C:\Users\Praveer\PycharmProjects\pdb_to_mol2_converter\data\pdb\balla.pdb
   22    22     0     0     0
SMALL
GASTEIGER

@<TRIPOS>ATOM
      1 C1          1.3920   -0.0050   -0.0620 C.3       1 BAL1        0.0000
      2 H1          1.8270   -0.5910    0.7800 H         1 BAL1        0.0000
      3 O1          1.7970   -0.5700   -1.2780 O.3       1 BAL1        0.0000
      4 HO1         1.2430   -1.3520   -1.3640 H         1 BAL1        0.0000
      5 C5         -0.5430    0.4320    1.2620 C.3       1 BAL1        0.0000
      6 H5         -0.1650   -0.2380    2.0640 H         1 BAL1        0.0000
      7 O5         -0.0300   -0.0250   -0.0220 O.3       1 BAL1        0.0000
      8 C2          1.7950    1.4610   -0.0050 C.3       1 BAL1        0.0000
      9 H2          1.1970    2.0030   -0.7760 H         1 BAL1        0.0000
     10 O2          3.1790    1.6970   -0.3040 O.3       1 BAL1        0.0000
     11 HO2         3.3830    1.1850   -1.0970 H         1 BAL1        0.0000
     12 C3          1.4200    1.9940    1.3560 C.3       1 BAL1        0.0000
     13 H3          1.6760    3.0800    1.4070 H         1 BAL1        0.0000
     14 O3          2.1720    1.3320    2.3770 O.3       1 BAL1        0.0000
     15 HO3         3.0660    1.6850    2.3600 H         1 BAL1        0.0000
     16 C4         -0.0900    1.8720    1.5320 C.3       1 BAL1        0.0000
     17 H4         -0.5730    2.5240    0.7610 H         1 BAL1        0.0000
     18 O4         -0.5230    2.3350    2.8100 O.3       1 BAL1        0.0000
     19 HO4        -1.3760    1.8630    2.9700 H         1 BAL1        0.0000
     20 C6         -2.0840    0.3760    1.3380 C.2       1 BAL1        0.0000
     21 O61        -2.5250    0.6470    2.4930 O.co2     1 BAL1        0.0000
     22 O62        -2.7120    0.1140    0.2930 O.co2     1 BAL1        0.0000
@<TRIPOS>BOND
     1    4    3 1 
     2    3    1 1 
     3   11   10 1 
     4    9    8 1 
     5   10    8 1 
     6    1    7 1 
     7    1    8 1 
     8    1    2 1 
     9    7    5 1 
    10    8   12 1 
    11   22   20 ar
    12   17   16 1 
    13    5   20 1 
    14    5   16 1 
    15    5    6 1 
    16   20   21 ar
    17   12   13 1 
    18   12   16 1 
    19   12   14 1 
    20   16   18 1 
    21   15   14 1 
    22   18   19 1 
