@<TRIPOS>MOLECULE
C:\Users\Praveer\PycharmProjects\pdb_to_mol2_converter\data\pdb\balln.pdb
   25    25     0     0     0
SMALL
GASTEIGER

@<TRIPOS>ATOM
      1 C1          1.3270    0.0210   -0.0300 C.3       1 BAL1        0.0000
      2 H1          1.7490   -0.5800    0.8080 H         1 BAL1        0.0000
      3 O1          1.7210   -0.5810   -1.2300 O.3       1 BAL1        0.0000
      4 HO1         1.2590   -0.1250   -1.9350 H         1 BAL1        0.0000
      5 C5         -0.5560    0.5170    1.3130 C.3       1 BAL1        0.0000
      6 H5         -0.1160   -0.1150    2.1210 H         1 BAL1        0.0000
      7 O5         -0.0960    0.0450    0.0380 O.3       1 BAL1        0.0000
      8 C2          1.8530    1.4510    0.0320 C.3       1 BAL1        0.0000
      9 H2          1.3780    2.0120   -0.8110 H         1 BAL1        0.0000
     10 N2          3.2960    1.5850   -0.1460 N.3       1 BAL1        0.0000
     11 HN21        3.7370    0.7820   -0.5550 H         1 BAL1        0.0000
     12 HN22        3.6500    2.4770   -0.4270 H         1 BAL1        0.0000
     13 C3          1.3940    2.0910    1.3190 C.3       1 BAL1        0.0000
     14 H3          1.6580    3.1760    1.2830 H         1 BAL1        0.0000
     15 O3          2.1080    1.5170    2.4090 O.3       1 BAL1        0.0000
     16 HO3         3.0270    1.4410    2.1130 H         1 BAL1        0.0000
     17 C4         -0.1070    1.9670    1.4950 C.3       1 BAL1        0.0000
     18 H4         -0.6050    2.5730    0.7010 H         1 BAL1        0.0000
     19 O4         -0.5150    2.4900    2.7540 O.3       1 BAL1        0.0000
     20 HO4         0.1810    2.2500    3.3830 H         1 BAL1        0.0000
     21 C6         -2.0560    0.3300    1.3140 C.3       1 BAL1        0.0000
     22 H61        -2.3030   -0.7240    1.0490 H         1 BAL1        0.0000
     23 H62        -2.5270    0.9910    0.5520 H         1 BAL1        0.0000
     24 O6         -2.6140    0.6110    2.5960 O.3       1 BAL1        0.0000
     25 HO6        -2.2530    1.4590    2.9000 H         1 BAL1        0.0000
@<TRIPOS>BOND
     1    4    3 1 
     2    3    1 1 
     3    9    8 1 
     4   11   10 1 
     5   12   10 1 
     6   10    8 1 
     7    1    8 1 
     8    1    7 1 
     9    1    2 1 
    10    8   13 1 
    11    7    5 1 
    12   23   21 1 
    13   18   17 1 
    14   22   21 1 
    15   14   13 1 
    16    5   21 1 
    17    5   17 1 
    18    5    6 1 
    19   21   24 1 
    20   13   17 1 
    21   13   15 1 
    22   17   19 1 
    23   16   15 1 
    24   24   25 1 
    25   19   20 1 
