@<TRIPOS>MOLECULE
C:\Users\Praveer\PycharmProjects\pdb_to_mol2_converter\data\pdb\ballna.pdb
   30    30     0     0     0
SMALL
GASTEIGER

@<TRIPOS>ATOM
      1 C1          1.3240   -0.0160   -0.0130 C.3       1 BAL1        0.0000
      2 H1          1.7720   -0.5540    0.8550 H         1 BAL1        0.0000
      3 O1          1.7230   -0.6740   -1.1780 O.3       1 BAL1        0.0000
      4 HO1         1.2340   -0.2740   -1.9000 H         1 BAL1        0.0000
      5 C5         -0.5460    0.5210    1.3310 C.3       1 BAL1        0.0000
      6 H5         -0.1030   -0.0780    2.1620 H         1 BAL1        0.0000
      7 O5         -0.0970   -0.0150    0.0770 O.3       1 BAL1        0.0000
      8 C2          1.7990    1.4200   -0.0650 C.3       1 BAL1        0.0000
      9 H2          1.2310    1.9190   -0.8920 H         1 BAL1        0.0000
     10 N           3.2120    1.5470   -0.3990 N.am      1 BAL1        0.0000
     11 HN          3.7300    0.6990   -0.4290 H         1 BAL1        0.0000
     12 C           3.7850    2.7060   -0.7420 C.2       1 BAL1        0.0000
     13 O           3.1670    3.7610   -0.7530 O.2       1 BAL1        0.0000
     14 CT          5.2410    2.6500   -1.1220 C.3       1 BAL1        0.0000
     15 HT1         5.4190    1.8160   -1.8320 H         1 BAL1        0.0000
     16 HT2         5.8630    2.5080   -0.2150 H         1 BAL1        0.0000
     17 HT3         5.5250    3.6070   -1.6090 H         1 BAL1        0.0000
     18 C3          1.4040    2.1020    1.2270 C.3       1 BAL1        0.0000
     19 H3          1.6390    3.1920    1.1550 H         1 BAL1        0.0000
     20 O3          2.1500    1.5680    2.3180 O.3       1 BAL1        0.0000
     21 HO3         2.9700    2.0670    2.4150 H         1 BAL1        0.0000
     22 C4         -0.0940    1.9770    1.4540 C.3       1 BAL1        0.0000
     23 H4         -0.6140    2.5560    0.6540 H         1 BAL1        0.0000
     24 O4         -0.4790    2.5370    2.7070 O.3       1 BAL1        0.0000
     25 HO4         0.1800    2.2500    3.3540 H         1 BAL1        0.0000
     26 C6         -2.0470    0.3380    1.3480 C.3       1 BAL1        0.0000
     27 H61        -2.2990   -0.7240    1.1200 H         1 BAL1        0.0000
     28 H62        -2.5210    0.9730    0.5670 H         1 BAL1        0.0000
     29 O6         -2.5990    0.6630    2.6230 O.3       1 BAL1        0.0000
     30 HO6        -2.2640    1.5360    2.8820 H         1 BAL1        0.0000
@<TRIPOS>BOND
     1    4    3 1 
     2   15   14 1 
     3   17   14 1 
     4    3    1 1 
     5   14   12 1 
     6   14   16 1 
     7    9    8 1 
     8   13   12 2 
     9   12   10 am
    10   11   10 1 
    11   10    8 1 
    12    8    1 1 
    13    8   18 1 
    14    1    7 1 
    15    1    2 1 
    16    7    5 1 
    17   28   26 1 
    18   23   22 1 
    19   27   26 1 
    20   19   18 1 
    21   18   22 1 
    22   18   20 1 
    23    5   26 1 
    24    5   22 1 
    25    5    6 1 
    26   26   29 1 
    27   22   24 1 
    28   20   21 1 
    29   29   30 1 
    30   24   25 1 
