@<TRIPOS>MOLECULE
C:\Users\Praveer\PycharmProjects\pdb_to_mol2_converter\data\pdb\balta.pdb
   22    22     0     0     0
SMALL
GASTEIGER

@<TRIPOS>ATOM
      1 C1          1.4630   -0.0600   -0.0900 C.3       1 BAL1        0.0000
      2 H1          1.9050   -0.5980    0.7810 H         1 BAL1        0.0000
      3 O1          1.8710   -0.6990   -1.2660 O.3       1 BAL1        0.0000
      4 HO1         1.4890   -0.1590   -1.9630 H         1 BAL1        0.0000
      5 C5         -0.4190    0.5290    1.2400 C.3       1 BAL1        0.0000
      6 H5         -0.1200   -0.1510    2.0700 H         1 BAL1        0.0000
      7 O5          0.0380   -0.0510   -0.0100 O.3       1 BAL1        0.0000
      8 C2          1.8890    1.3880   -0.1420 C.3       1 BAL1        0.0000
      9 H2          2.9930    1.4330   -0.3150 H         1 BAL1        0.0000
     10 O2          1.2470    2.1210   -1.2040 O.3       1 BAL1        0.0000
     11 HO2         0.3070    1.9060   -1.1880 H         1 BAL1        0.0000
     12 C3          1.6010    2.0250    1.1920 C.3       1 BAL1        0.0000
     13 H3          1.8930    3.1030    1.1560 H         1 BAL1        0.0000
     14 O3          2.3970    1.4200    2.2080 O.3       1 BAL1        0.0000
     15 HO3         1.9260    1.6010    3.0330 H         1 BAL1        0.0000
     16 C4          0.1200    1.9390    1.5140 C.3       1 BAL1        0.0000
     17 H4         -0.4060    2.6590    0.8340 H         1 BAL1        0.0000
     18 O4         -0.1700    2.3210    2.8550 O.3       1 BAL1        0.0000
     19 HO4        -1.0750    1.9770    3.0330 H         1 BAL1        0.0000
     20 C6         -1.9420    0.6880    1.2740 C.2       1 BAL1        0.0000
     21 O61        -2.4150    0.6690    2.4510 O.co2     1 BAL1        0.0000
     22 O62        -2.5040    0.9630    0.1900 O.co2     1 BAL1        0.0000
@<TRIPOS>BOND
     1    4    3 1 
     2    3    1 1 
     3   10   11 1 
     4   10    8 1 
     5    9    8 1 
     6    8    1 1 
     7    8   12 1 
     8    1    7 1 
     9    1    2 1 
    10    7    5 1 
    11   22   20 ar
    12   17   16 1 
    13   13   12 1 
    14   12   16 1 
    15   12   14 1 
    16    5   20 1 
    17    5   16 1 
    18    5    6 1 
    19   20   21 ar
    20   16   18 1 
    21   14   15 1 
    22   18   19 1 
