@<TRIPOS>MOLECULE
C:\Users\Praveer\PycharmProjects\pdb_to_mol2_converter\data\pdb\balt.pdb
   24    24     0     0     0
SMALL
GASTEIGER

@<TRIPOS>ATOM
      1 C1          1.3610   -0.0120   -0.1170 C.3       1 BAL1        0.0000
      2 H1          1.7560   -0.6480    0.7080 H         1 BAL1        0.0000
      3 O1          1.7070   -0.5920   -1.3450 O.3       1 BAL1        0.0000
      4 HO1         1.3120   -1.4670   -1.3590 H         1 BAL1        0.0000
      5 C5         -0.4990    0.5830    1.2240 C.3       1 BAL1        0.0000
      6 H5         -0.1160   -0.0830    2.0340 H         1 BAL1        0.0000
      7 O5         -0.0610    0.0730   -0.0500 O.3       1 BAL1        0.0000
      8 C2          1.9510    1.3930   -0.0390 C.3       1 BAL1        0.0000
      9 H2          3.0620    1.3060   -0.0900 H         1 BAL1        0.0000
     10 O2          1.5470    2.2460   -1.1130 O.3       1 BAL1        0.0000
     11 HO2         1.4410    1.6810   -1.8900 H         1 BAL1        0.0000
     12 C3          1.5620    2.0150    1.2780 C.3       1 BAL1        0.0000
     13 H3          1.8890    3.0850    1.2830 H         1 BAL1        0.0000
     14 O3          2.2310    1.3560    2.3560 O.3       1 BAL1        0.0000
     15 HO3         2.9180    1.9300    2.7130 H         1 BAL1        0.0000
     16 C4          0.0520    1.9910    1.4420 C.3       1 BAL1        0.0000
     17 H4         -0.3940    2.6510    0.6590 H         1 BAL1        0.0000
     18 O4         -0.3500    2.4990    2.7090 O.3       1 BAL1        0.0000
     19 HO4         0.1840    2.0630    3.3830 H         1 BAL1        0.0000
     20 C6         -2.0120    0.5330    1.2490 C.3       1 BAL1        0.0000
     21 H61        -2.4260    1.1780    0.4410 H         1 BAL1        0.0000
     22 H62        -2.3910    0.9200    2.2220 H         1 BAL1        0.0000
     23 O6         -2.4910   -0.8020    1.0800 O.3       1 BAL1        0.0000
     24 HO6        -2.2100   -1.1170    0.2140 H         1 BAL1        0.0000
@<TRIPOS>BOND
     1   11   10 1 
     2    4    3 1 
     3    3    1 1 
     4   10    8 1 
     5    1    7 1 
     6    1    8 1 
     7    1    2 1 
     8    9    8 1 
     9    7    5 1 
    10    8   12 1 
    11   24   23 1 
    12   21   20 1 
    13   17   16 1 
    14   23   20 1 
    15    5   20 1 
    16    5   16 1 
    17    5    6 1 
    18   20   22 1 
    19   12   13 1 
    20   12   16 1 
    21   12   14 1 
    22   16   18 1 
    23   14   15 1 
    24   18   19 1 
