@<TRIPOS>MOLECULE
C:\Users\Praveer\PycharmProjects\pdb_to_mol2_converter\data\pdb\baltn.pdb
   25    25     0     0     0
SMALL
GASTEIGER

@<TRIPOS>ATOM
      1 C1          1.3770   -0.0050   -0.0950 C.3       1 BAL1        0.0000
      2 H1          1.7710   -0.6110    0.7530 H         1 BAL1        0.0000
      3 O1          1.7640   -0.6130   -1.2950 O.3       1 BAL1        0.0000
      4 HO1         1.3710   -1.4870   -1.3030 H         1 BAL1        0.0000
      5 C5         -0.4970    0.5870    1.2310 C.3       1 BAL1        0.0000
      6 H5         -0.1160   -0.0680    2.0500 H         1 BAL1        0.0000
      7 O5         -0.0470    0.0660   -0.0350 O.3       1 BAL1        0.0000
      8 C2          1.9380    1.4160   -0.0420 C.3       1 BAL1        0.0000
      9 H2          3.0520    1.3320   -0.0810 H         1 BAL1        0.0000
     10 N2          1.5700    2.2830   -1.1550 N.3       1 BAL1        0.0000
     11 HN21        0.9930    1.8170   -1.8280 H         1 BAL1        0.0000
     12 HN22        2.2870    2.8660   -1.5330 H         1 BAL1        0.0000
     13 C3          1.5530    2.0280    1.2810 C.3       1 BAL1        0.0000
     14 H3          1.8770    3.0980    1.2730 H         1 BAL1        0.0000
     15 O3          2.2190    1.3720    2.3640 O.3       1 BAL1        0.0000
     16 HO3         2.9230    1.9360    2.7040 H         1 BAL1        0.0000
     17 C4          0.0440    2.0000    1.4360 C.3       1 BAL1        0.0000
     18 H4         -0.4030    2.6510    0.6460 H         1 BAL1        0.0000
     19 O4         -0.3660    2.5180    2.6970 O.3       1 BAL1        0.0000
     20 HO4         0.1700    2.0890    3.3750 H         1 BAL1        0.0000
     21 C6         -2.0100    0.5290    1.2470 C.3       1 BAL1        0.0000
     22 H61        -2.4220    1.1630    0.4290 H         1 BAL1        0.0000
     23 H62        -2.3980    0.9240    2.2130 H         1 BAL1        0.0000
     24 O6         -2.4810   -0.8100    1.0860 O.3       1 BAL1        0.0000
     25 HO6        -2.1740   -1.1370    0.2330 H         1 BAL1        0.0000
@<TRIPOS>BOND
     1   11   10 1 
     2   12   10 1 
     3    4    3 1 
     4    3    1 1 
     5   10    8 1 
     6    1    8 1 
     7    1    7 1 
     8    1    2 1 
     9    9    8 1 
    10    8   13 1 
    11    7    5 1 
    12   25   24 1 
    13   22   21 1 
    14   18   17 1 
    15   24   21 1 
    16    5   21 1 
    17    5   17 1 
    18    5    6 1 
    19   21   23 1 
    20   14   13 1 
    21   13   17 1 
    22   13   15 1 
    23   17   19 1 
    24   15   16 1 
    25   19   20 1 
