@<TRIPOS>MOLECULE
C:\Users\Praveer\PycharmProjects\pdb_to_mol2_converter\data\pdb\baltna.pdb
   30    30     0     0     0
SMALL
GASTEIGER

@<TRIPOS>ATOM
      1 C1          1.3960    0.0460   -0.0470 C.3       1 BAL1        0.0000
      2 H1          1.8170   -0.5650    0.7840 H         1 BAL1        0.0000
      3 O1          1.7950   -0.5060   -1.2660 O.3       1 BAL1        0.0000
      4 HO1         1.4860   -1.4160   -1.2770 H         1 BAL1        0.0000
      5 C5         -0.5140    0.5360    1.2750 C.3       1 BAL1        0.0000
      6 H5         -0.1360   -0.1520    2.0690 H         1 BAL1        0.0000
      7 O5         -0.0300    0.0770   -0.0030 O.3       1 BAL1        0.0000
      8 C2          1.8630    1.4850    0.0070 C.3       1 BAL1        0.0000
      9 H2          2.9790    1.4930   -0.0800 H         1 BAL1        0.0000
     10 N           1.3500    2.2490   -1.1180 N.am      1 BAL1        0.0000
     11 HN          0.7900    1.7170   -1.7460 H         1 BAL1        0.0000
     12 C           1.6410    3.5260   -1.3870 C.2       1 BAL1        0.0000
     13 O           2.3790    4.1980   -0.6810 O.2       1 BAL1        0.0000
     14 CT          1.0030    4.1040   -2.6220 C.3       1 BAL1        0.0000
     15 HT1        -0.0120    3.6800   -2.7660 H         1 BAL1        0.0000
     16 HT2         1.6300    3.8800   -3.5090 H         1 BAL1        0.0000
     17 HT3         0.9220    5.2060   -2.5100 H         1 BAL1        0.0000
     18 C3          1.4890    2.0420    1.3620 C.3       1 BAL1        0.0000
     19 H3          1.7730    3.1200    1.4230 H         1 BAL1        0.0000
     20 O3          2.2060    1.3630    2.3920 O.3       1 BAL1        0.0000
     21 HO3         2.9610    1.8990    2.6600 H         1 BAL1        0.0000
     22 C4         -0.0120    1.9490    1.5570 C.3       1 BAL1        0.0000
     23 H4         -0.4990    2.6340    0.8230 H         1 BAL1        0.0000
     24 O4         -0.4100    2.3750    2.8540 O.3       1 BAL1        0.0000
     25 HO4         0.1900    1.9710    3.4910 H         1 BAL1        0.0000
     26 C6         -2.0250    0.4560    1.2590 C.3       1 BAL1        0.0000
     27 H61        -2.4340    1.1430    0.4830 H         1 BAL1        0.0000
     28 H62        -2.4330    0.7760    2.2460 H         1 BAL1        0.0000
     29 O6         -2.4730   -0.8710    0.9920 O.3       1 BAL1        0.0000
     30 HO6        -2.1360   -1.1380    0.1290 H         1 BAL1        0.0000
@<TRIPOS>BOND
     1   16   14 1 
     2   15   14 1 
     3   14   17 1 
     4   14   12 1 
     5   11   10 1 
     6   12   10 am
     7   12   13 2 
     8    4    3 1 
     9    3    1 1 
    10   10    8 1 
    11    9    8 1 
    12    1    7 1 
    13    1    8 1 
    14    1    2 1 
    15    7    5 1 
    16    8   18 1 
    17   30   29 1 
    18   27   26 1 
    19   23   22 1 
    20   29   26 1 
    21   26    5 1 
    22   26   28 1 
    23    5   22 1 
    24    5    6 1 
    25   18   19 1 
    26   18   22 1 
    27   18   20 1 
    28   22   24 1 
    29   20   21 1 
    30   24   25 1 
