@<TRIPOS>MOLECULE
C:\Users\Praveer\PycharmProjects\pdb_to_mol2_converter\data\pdb\bam1.pdb
   37    38     0     0     0
SMALL
GASTEIGER

@<TRIPOS>ATOM
      1 C12         0.0130   -0.0190    0.0220 C.3       1 BAM1        0.0000
      2 H12A       -0.3270   -1.0680    0.1260 H         1 BAM1        0.0000
      3 H12B       -0.3420    0.3730   -0.9550 H         1 BAM1        0.0000
      4 C11         1.5600   -0.0110    0.0290 C.3       1 BAM1        0.0000
      5 H11A        1.9350   -0.5820   -0.8480 H         1 BAM1        0.0000
      6 H11B        1.9220   -0.5320    0.9440 H         1 BAM1        0.0000
      7 C9          2.1560    1.4060    0.0130 C.3       1 BAM1        0.0000
      8 H9A         1.9110    1.8800   -0.9640 H         1 BAM1        0.0000
      9 H9B         3.2640    1.3530    0.0970 H         1 BAM1        0.0000
     10 C8          1.5880    2.2830    1.1400 C.3       1 BAM1        0.0000
     11 H8A         1.9600    3.3250    1.0300 H         1 BAM1        0.0000
     12 H8B         1.9260    1.9030    2.1250 H         1 BAM1        0.0000
     13 C14         0.0620    2.2650    1.0340 C.3       1 BAM1        0.0000
     14 H14        -0.1980    2.6670    0.0250 H         1 BAM1        0.0000
     15 C13        -0.5550    0.8590    1.1510 C.3       1 BAM1        0.0000
     16 C15        -0.7160    3.0680    2.0710 C.3       1 BAM1        0.0000
     17 H15A       -0.7560    4.1330    1.8000 H         1 BAM1        0.0000
     18 H15B       -0.2430    3.0000    3.0620 H         1 BAM1        0.0000
     19 C16        -2.1120    2.4030    2.0610 C.3       1 BAM1        0.0000
     20 H16A       -2.8980    3.1340    1.8260 H         1 BAM1        0.0000
     21 H16B       -2.3570    2.0030    3.0540 H         1 BAM1        0.0000
     22 C17        -2.0620    1.2750    0.9930 C.3       1 BAM1        0.0000
     23 H17        -2.1960    1.7070   -0.0100 H         1 BAM1        0.0000
     24 C18        -0.2770    0.1720    2.5160 C.3       1 BAM1        0.0000
     25 H18A        0.4970    0.7120    3.0930 H         1 BAM1        0.0000
     26 H18B        0.0750   -0.8680    2.3610 H         1 BAM1        0.0000
     27 H18C       -1.1850    0.1230    3.1460 H         1 BAM1        0.0000
     28 C20        -3.1580    0.1840    1.1930 C.3       1 BAM1        0.0000
     29 H20        -3.0380   -0.3150    2.1780 H         1 BAM1        0.0000
     30 C21        -3.1350   -0.8790    0.0810 C.3       1 BAM1        0.0000
     31 H21A       -2.2880   -1.5780    0.2130 H         1 BAM1        0.0000
     32 H21B       -3.0670   -0.4000   -0.9180 H         1 BAM1        0.0000
     33 H21C       -4.0660   -1.4840    0.1170 H         1 BAM1        0.0000
     34 C22        -4.5320    0.8860    1.1750 C.3       1 BAM1        0.0000
     35 H22A       -4.6620    1.4530    0.2290 H         1 BAM1        0.0000
     36 H22B       -4.6390    1.5850    2.0290 H         1 BAM1        0.0000
     37 H22C       -5.3460    0.1340    1.2470 H         1 BAM1        0.0000
@<TRIPOS>BOND
     1    8    7 1 
     2    3    1 1 
     3   32   30 1 
     4    5    4 1 
     5   23   22 1 
     6    7    4 1 
     7    7    9 1 
     8    7   10 1 
     9    1    4 1 
    10    1    2 1 
    11    1   15 1 
    12   14   13 1 
    13    4    6 1 
    14   30   33 1 
    15   30   31 1 
    16   30   28 1 
    17   35   34 1 
    18   22   15 1 
    19   22   28 1 
    20   22   19 1 
    21   11   10 1 
    22   13   10 1 
    23   13   15 1 
    24   13   16 1 
    25   10   12 1 
    26   15   24 1 
    27   34   28 1 
    28   34   37 1 
    29   34   36 1 
    30   28   29 1 
    31   17   16 1 
    32   20   19 1 
    33   19   16 1 
    34   19   21 1 
    35   16   18 1 
    36   26   24 1 
    37   24   25 1 
    38   24   27 1 
