@<TRIPOS>MOLECULE
C:\Users\Praveer\PycharmProjects\pdb_to_mol2_converter\data\pdb\bami.pdb
   18    18     0     0     0
SMALL
GASTEIGER

@<TRIPOS>ATOM
      1 C1         -0.0380   -0.0660   -0.0000 C.ar      1 BAM1        0.0000
      2 H2         -0.5790   -1.0040    0.0000 H         1 BAM1        0.0000
      3 C3          1.3590   -0.0680   -0.0330 C.ar      1 BAM1        0.0000
      4 H4          1.8930   -1.0090   -0.0560 H         1 BAM1        0.0000
      5 C5          2.0610    1.1420   -0.0350 C.ar      1 BAM1        0.0000
      6 H6          3.1420    1.1020   -0.0480 H         1 BAM1        0.0000
      7 C7         -0.7380    1.1430    0.0330 C.ar      1 BAM1        0.0000
      8 H8         -1.8200    1.1350    0.0560 H         1 BAM1        0.0000
      9 C9         -0.0410    2.3560    0.0350 C.ar      1 BAM1        0.0000
     10 H10        -0.6170    3.2720    0.0480 H         1 BAM1        0.0000
     11 C11         1.3760    2.3830    0.0000 C.ar      1 BAM1        0.0000
     12 C12         2.1190    3.6700   -0.0000 C.2       1 BAM1        0.0000
     13 N13         3.1930    3.8290   -0.7620 N.2       1 BAM1        0.0000
     14 H14         3.5000    3.0930   -1.3650 H         1 BAM1        0.0000
     15 H15         3.6790    4.7000   -0.7580 H         1 BAM1        0.0000
     16 N16         1.7200    4.6790    0.7620 N.pl3     1 BAM1        0.0000
     17 H17         0.9290    4.5770    1.3650 H         1 BAM1        0.0000
     18 H18         2.2310    5.5370    0.7580 H         1 BAM1        0.0000
@<TRIPOS>BOND
     1   14   13 1 
     2   13   15 1 
     3   13   12 2 
     4    4    3 1 
     5    6    5 1 
     6    5    3 ar
     7    5   11 ar
     8    3    1 ar
     9    1    2 1 
    10    1    7 ar
    11   11   12 1 
    12   11    9 ar
    13   12   16 1 
    14    7    9 ar
    15    7    8 1 
    16    9   10 1 
    17   18   16 1 
    18   16   17 1 
