@<TRIPOS>MOLECULE
C:\Users\Praveer\PycharmProjects\pdb_to_mol2_converter\data\pdb\barbp.pdb
   20    20     0     0     0
SMALL
GASTEIGER

@<TRIPOS>ATOM
      1 C1          1.4270   -0.0270   -0.0700 C.3       1 BAR1        0.0000
      2 H1          1.8060   -0.5910    0.8150 H         1 BAR1        0.0000
      3 O1          1.8180   -0.7210   -1.2310 O.3       1 BAR1        0.0000
      4 HO1         1.5920   -1.6450   -1.0920 H         1 BAR1        0.0000
      5 C5         -0.5820    0.8390   -1.0290 C.3       1 BAR1        0.0000
      6 H51        -1.6880    0.8490   -0.9030 H         1 BAR1        0.0000
      7 H52        -0.3780    0.3580   -2.0120 H         1 BAR1        0.0000
      8 O5          0.0010    0.0660    0.0370 O.3       1 BAR1        0.0000
      9 C2          2.0320    1.3800   -0.0220 C.3       1 BAR1        0.0000
     10 H2          1.7420    1.8170    0.9620 H         1 BAR1        0.0000
     11 O2          3.4620    1.3790   -0.0450 O.3       1 BAR1        0.0000
     12 HO2         3.7430    1.2610   -0.9610 H         1 BAR1        0.0000
     13 C3          1.4500    2.2610   -1.1120 C.3       1 BAR1        0.0000
     14 H3          1.8150    3.3070   -0.9650 H         1 BAR1        0.0000
     15 O3          1.8820    1.8440   -2.4060 O.3       1 BAR1        0.0000
     16 HO3         1.8740    0.8730   -2.4130 H         1 BAR1        0.0000
     17 C4         -0.0580    2.2610   -1.0280 C.3       1 BAR1        0.0000
     18 H4         -0.4740    2.8160   -1.9040 H         1 BAR1        0.0000
     19 O4         -0.5040    2.9230    0.1460 O.3       1 BAR1        0.0000
     20 HO4        -0.5780    2.2740    0.8550 H         1 BAR1        0.0000
@<TRIPOS>BOND
     1   16   15 1 
     2   15   13 1 
     3    7    5 1 
     4   18   17 1 
     5    3    4 1 
     6    3    1 1 
     7   13   17 1 
     8   13   14 1 
     9   13    9 1 
    10    5   17 1 
    11    5    6 1 
    12    5    8 1 
    13   17   19 1 
    14   12   11 1 
    15    1    9 1 
    16    1    8 1 
    17    1    2 1 
    18   11    9 1 
    19    9   10 1 
    20   19   20 1 
