@<TRIPOS>MOLECULE
C:\Users\Praveer\PycharmProjects\pdb_to_mol2_converter\data\pdb\barb.pdb
   20    20     0     0     0
SMALL
GASTEIGER

@<TRIPOS>ATOM
      1 O4          1.2950    0.0900    0.4110 O.3       1 BAR1        0.0000
      2 C1          1.8770    1.3140   -0.0540 C.3       1 BAR1        0.0000
      3 H1          2.5060    1.7300    0.7630 H         1 BAR1        0.0000
      4 O1          2.6720    1.1060   -1.1810 O.3       1 BAR1        0.0000
      5 HO1         2.6670    1.9470   -1.6530 H         1 BAR1        0.0000
      6 C4         -0.1080    0.0730    0.1000 C.3       1 BAR1        0.0000
      7 H4         -0.6390    0.2880    1.0560 H         1 BAR1        0.0000
      8 C5         -0.4960   -1.2830   -0.4220 C.3       1 BAR1        0.0000
      9 H51        -0.1370   -2.0770    0.2720 H         1 BAR1        0.0000
     10 H52        -0.0150   -1.4600   -1.4120 H         1 BAR1        0.0000
     11 O5         -1.9160   -1.3820   -0.5650 O.3       1 BAR1        0.0000
     12 HO5        -2.3220   -1.6210    0.2770 H         1 BAR1        0.0000
     13 C2          0.6750    2.2360   -0.3630 C.3       1 BAR1        0.0000
     14 H2          0.2950    2.6650    0.5920 H         1 BAR1        0.0000
     15 O2          0.9180    3.2890   -1.2790 O.3       1 BAR1        0.0000
     16 HO2         0.0660    3.6870   -1.5000 H         1 BAR1        0.0000
     17 C3         -0.3140    1.2070   -0.8980 C.3       1 BAR1        0.0000
     18 H3         -0.0220    0.8850   -1.9240 H         1 BAR1        0.0000
     19 O3         -1.6410    1.6740   -0.9010 O.3       1 BAR1        0.0000
     20 HO3        -2.2110    0.9400   -1.1700 H         1 BAR1        0.0000
@<TRIPOS>BOND
     1   18   17 1 
     2    5    4 1 
     3   16   15 1 
     4   10    8 1 
     5   15   13 1 
     6    4    2 1 
     7   20   19 1 
     8   19   17 1 
     9   17   13 1 
    10   17    6 1 
    11   11    8 1 
    12   11   12 1 
    13    8    6 1 
    14    8    9 1 
    15   13    2 1 
    16   13   14 1 
    17    2    1 1 
    18    2    3 1 
    19    6    1 1 
    20    6    7 1 
