@<TRIPOS>MOLECULE
C:\Users\Praveer\PycharmProjects\pdb_to_mol2_converter\data\pdb\basc.pdb
   22    22     0     0     0
SMALL
GASTEIGER

@<TRIPOS>ATOM
      1 C1          1.4390    0.0060   -0.0250 C.3       1 BAS1        0.0000
      2 H1          1.7620   -0.4890   -0.9690 H         1 BAS1        0.0000
      3 O1          1.9490   -0.7070    1.0680 O.3       1 BAS1        0.0000
      4 HO1         1.5370   -1.5740    1.0400 H         1 BAS1        0.0000
      5 C5         -0.5830    0.6920   -1.0370 C.3       1 BAS1        0.0000
      6 H5         -0.2850    0.1840   -1.9840 H         1 BAS1        0.0000
      7 O5          0.0160    0.0080    0.0720 O.3       1 BAS1        0.0000
      8 C2          1.9620    1.4460    0.0130 C.3       1 BAS1        0.0000
      9 H2          3.0730    1.4180   -0.0860 H         1 BAS1        0.0000
     10 O2          1.6560    2.1330    1.2210 O.3       1 BAS1        0.0000
     11 HO2         1.6030    1.4580    1.9090 H         1 BAS1        0.0000
     12 C3          1.3790    2.2280   -1.1240 C.3       1 BAS1        0.0000
     13 H31         1.7550    1.8120   -2.0880 H         1 BAS1        0.0000
     14 H32         1.7100    3.2910   -1.0710 H         1 BAS1        0.0000
     15 C4         -0.1150    2.1450   -1.0930 C.3       1 BAS1        0.0000
     16 H4         -0.5050    2.6630   -0.1830 H         1 BAS1        0.0000
     17 O4         -0.6230    2.7970   -2.2430 O.3       1 BAS1        0.0000
     18 HO4        -0.8380    3.7070   -2.0210 H         1 BAS1        0.0000
     19 C6         -2.1060    0.5440   -0.8700 C.3       1 BAS1        0.0000
     20 H61        -2.3850   -0.5300   -0.8390 H         1 BAS1        0.0000
     21 H62        -2.6350    1.0270   -1.7190 H         1 BAS1        0.0000
     22 H63        -2.4340    1.0220    0.0760 H         1 BAS1        0.0000
@<TRIPOS>BOND
     1   17   18 1 
     2   17   15 1 
     3   13   12 1 
     4    6    5 1 
     5   21   19 1 
     6   12   15 1 
     7   12   14 1 
     8   12    8 1 
     9   15    5 1 
    10   15   16 1 
    11    5   19 1 
    12    5    7 1 
    13    2    1 1 
    14   19   20 1 
    15   19   22 1 
    16    9    8 1 
    17    1    8 1 
    18    1    7 1 
    19    1    3 1 
    20    8   10 1 
    21    4    3 1 
    22   10   11 1 
