@<TRIPOS>MOLECULE
C:\Users\Praveer\PycharmProjects\pdb_to_mol2_converter\data\pdb\bbac.pdb
   35    35     0     0     0
SMALL
GASTEIGER

@<TRIPOS>ATOM
      1 C1          1.5050   -0.1090    0.0000 C.3       1 BBA1        0.0000
      2 H1          1.8690   -0.5780   -0.9450 H         1 BBA1        0.0000
      3 O1          2.1480   -0.7400    1.0720 O.3       1 BBA1        0.0000
      4 HO1         1.9530   -1.6780    0.9970 H         1 BBA1        0.0000
      5 C5         -0.5190    0.3840    1.1750 C.3       1 BBA1        0.0000
      6 H5         -0.1220   -0.0630    2.1160 H         1 BBA1        0.0000
      7 O5          0.0880   -0.2460    0.0400 O.3       1 BBA1        0.0000
      8 C2          1.8940    1.3530   -0.0220 C.3       1 BBA1        0.0000
      9 H2          1.4370    1.7720   -0.9570 H         1 BBA1        0.0000
     10 N           3.3400    1.5170   -0.1140 N.am      1 BBA1        0.0000
     11 HN          3.8790    0.7950    0.3090 H         1 BBA1        0.0000
     12 C           3.9380    2.5610   -0.6930 C.2       1 BBA1        0.0000
     13 O           3.2980    3.4980   -1.1520 O.2       1 BBA1        0.0000
     14 CT          5.4420    2.5340   -0.7410 C.3       1 BBA1        0.0000
     15 HT1         5.7840    1.6760   -1.3560 H         1 BBA1        0.0000
     16 HT2         5.8530    2.4450    0.2860 H         1 BBA1        0.0000
     17 HT3         5.8090    3.4770   -1.1990 H         1 BBA1        0.0000
     18 C3          1.2700    2.0810    1.1470 C.3       1 BBA1        0.0000
     19 H3          1.7020    1.6720    2.0920 H         1 BBA1        0.0000
     20 O3          1.5790    3.4680    1.1120 O.3       1 BBA1        0.0000
     21 HO3         2.0410    3.6710    0.2800 H         1 BBA1        0.0000
     22 C4         -0.2290    1.8830    1.1760 C.3       1 BBA1        0.0000
     23 H4         -0.6400    2.2970    0.2190 H         1 BBA1        0.0000
     24 N4         -0.8320    2.6060    2.2850 N.am      1 BBA1        0.0000
     25 HN4        -0.2380    2.7780    3.0600 H         1 BBA1        0.0000
     26 CN4        -2.0390    3.1880    2.2550 C.2       1 BBA1        0.0000
     27 ON4        -2.8100    3.0830    1.3100 O.2       1 BBA1        0.0000
     28 CT4        -2.4120    4.0010    3.4670 C.3       1 BBA1        0.0000
     29 HT41       -1.7360    4.8770    3.5530 H         1 BBA1        0.0000
     30 HT42       -2.3350    3.3790    4.3810 H         1 BBA1        0.0000
     31 HT43       -3.4570    4.3600    3.3570 H         1 BBA1        0.0000
     32 C6         -2.0100    0.0240    1.0740 C.3       1 BBA1        0.0000
     33 H61        -2.5660    0.3860    1.9630 H         1 BBA1        0.0000
     34 H62        -2.1400   -1.0760    0.9990 H         1 BBA1        0.0000
     35 H63        -2.4550    0.4940    0.1710 H         1 BBA1        0.0000
@<TRIPOS>BOND
     1   15   14 1 
     2   17   14 1 
     3   13   12 2 
     4    9    8 1 
     5    2    1 1 
     6   14   12 1 
     7   14   16 1 
     8   12   10 am
     9   10    8 1 
    10   10   11 1 
    11    8    1 1 
    12    8   18 1 
    13    1    7 1 
    14    1    3 1 
    15    7    5 1 
    16   35   32 1 
    17   23   22 1 
    18   21   20 1 
    19    4    3 1 
    20   34   32 1 
    21   32    5 1 
    22   32   33 1 
    23   20   18 1 
    24   18   22 1 
    25   18   19 1 
    26    5   22 1 
    27    5    6 1 
    28   22   24 1 
    29   27   26 2 
    30   26   24 am
    31   26   28 1 
    32   24   25 1 
    33   31   28 1 
    34   28   29 1 
    35   28   30 1 
