@<TRIPOS>MOLECULE
C:\Users\Praveer\PycharmProjects\pdb_to_mol2_converter\data\pdb\bbcu.pdb
   22    22     0     0     0
SMALL
GASTEIGER

@<TRIPOS>ATOM
      1 N1          1.3630    0.0060    0.0020 N.ar      1 BBC1        0.0000
      2 C2          2.0780    1.2200    0.0040 C.ar      1 BBC1        0.0000
      3 O2          3.3060    1.2760    0.0070 O.2       1 BBC1        0.0000
      4 N3          1.3290    2.3660    0.0000 N.ar      1 BBC1        0.0000
      5 H3          1.8320    3.2310   -0.0190 H         1 BBC1        0.0000
      6 C4         -0.0450    2.4360   -0.0150 C.ar      1 BBC1        0.0000
      7 O4         -0.5700    3.5470   -0.0610 O.2       1 BBC1        0.0000
      8 C5         -0.7530    1.1730    0.0130 C.ar      1 BBC1        0.0000
      9 C6         -0.0080    0.0150    0.0030 C.ar      1 BBC1        0.0000
     10 H6         -0.5040   -0.9570   -0.0310 H         1 BBC1        0.0000
     11 C7         -2.2560    1.1570   -0.0010 C.3       1 BBC1        0.0000
     12 H71        -2.6460    2.0800    0.4820 H         1 BBC1        0.0000
     13 H72        -2.6070    0.2820    0.5900 H         1 BBC1        0.0000
     14 C8         -2.7400    1.0150   -1.4040 C.2       1 BBC1        0.0000
     15 O8         -2.7160   -0.0850   -1.9490 O.2       1 BBC1        0.0000
     16 N8         -3.1460    2.1300   -2.0560 N.am      1 BBC1        0.0000
     17 H81        -3.0270    3.0220   -1.6290 H         1 BBC1        0.0000
     18 H82        -3.4080    2.0200   -3.0100 H         1 BBC1        0.0000
     19 CM          2.1230   -1.2560   -0.0020 C.3       1 BBC1        0.0000
     20 HM1         2.7790   -1.3330    0.8960 H         1 BBC1        0.0000
     21 HM2         2.7840   -1.3230   -0.8980 H         1 BBC1        0.0000
     22 HM3         1.4640   -2.1550   -0.0100 H         1 BBC1        0.0000
@<TRIPOS>BOND
     1   18   16 1 
     2   16   17 1 
     3   16   14 am
     4   15   14 2 
     5   14   11 1 
     6   21   19 1 
     7    7    6 2 
     8   10    9 1 
     9    5    4 1 
    10    6    4 ar
    11    6    8 ar
    12   22   19 1 
    13   19    1 1 
    14   19   20 1 
    15   11    8 1 
    16   11   12 1 
    17   11   13 1 
    18    4    2 ar
    19    1    9 ar
    20    1    2 ar
    21    9    8 ar
    22    2    3 2 
