@<TRIPOS>MOLECULE
C:\Users\Praveer\PycharmProjects\pdb_to_mol2_converter\data\pdb\bben.pdb
   24    24     0     0     0
SMALL
GASTEIGER

@<TRIPOS>ATOM
      1 CG          0.0050    0.0080   -0.0050 C.ar      1 BBE1        0.0000
      2 CD1         1.4090    0.0150    0.0050 C.ar      1 BBE1        0.0000
      3 HD1         1.9470   -0.9210   -0.0110 H         1 BBE1        0.0000
      4 CD2        -0.6920    1.2270    0.0050 C.ar      1 BBE1        0.0000
      5 HD2        -1.7710    1.2260   -0.0110 H         1 BBE1        0.0000
      6 CE1         2.1100    1.2280    0.0330 C.ar      1 BBE1        0.0000
      7 HE1         3.1900    1.2270    0.0430 H         1 BBE1        0.0000
      8 CE2         0.0080    2.4410    0.0330 C.ar      1 BBE1        0.0000
      9 HE2        -0.5330    3.3770    0.0420 H         1 BBE1        0.0000
     10 CZ          1.4090    2.4410    0.0480 C.ar      1 BBE1        0.0000
     11 HZ          1.9490    3.3760    0.0700 H         1 BBE1        0.0000
     12 C1         -0.7480   -1.2960   -0.0470 C.3       1 BBE1        0.0000
     13 H11        -1.7150   -1.1690    0.4870 H         1 BBE1        0.0000
     14 H12        -0.1550   -2.0690    0.4880 H         1 BBE1        0.0000
     15 C2         -0.9890   -1.7140   -1.5070 C.3       1 BBE1        0.0000
     16 H21        -0.0130   -1.8220   -2.0320 H         1 BBE1        0.0000
     17 H22        -1.5700   -0.9230   -2.0330 H         1 BBE1        0.0000
     18 C3         -1.7540   -3.0400   -1.6160 C.3       1 BBE1        0.0000
     19 H31        -2.7300   -2.9350   -1.0890 H         1 BBE1        0.0000
     20 H32        -1.1750   -3.8330   -1.0890 H         1 BBE1        0.0000
     21 C4         -2.0070   -3.4780   -3.0610 C.3       1 BBE1        0.0000
     22 H41        -1.0440   -3.6130   -3.5990 H         1 BBE1        0.0000
     23 H42        -2.6050   -2.7130   -3.6000 H         1 BBE1        0.0000
     24 H43        -2.5620   -4.4410   -3.0870 H         1 BBE1        0.0000
@<TRIPOS>BOND
     1   23   21 1 
     2   22   21 1 
     3   24   21 1 
     4   21   18 1 
     5   17   15 1 
     6   16   15 1 
     7   18   15 1 
     8   18   19 1 
     9   18   20 1 
    10   15   12 1 
    11   12    1 1 
    12   12   13 1 
    13   12   14 1 
    14    3    2 1 
    15    5    4 1 
    16    1    2 ar
    17    1    4 ar
    18    2    6 ar
    19    4    8 ar
    20    6    7 1 
    21    6   10 ar
    22    8    9 1 
    23    8   10 ar
    24   10   11 1 
