@<TRIPOS>MOLECULE
C:\Users\Praveer\PycharmProjects\pdb_to_mol2_converter\data\pdb\bbug.pdb
   42    44     0     0     0
SMALL
GASTEIGER

@<TRIPOS>ATOM
      1 N9          1.3920    0.0050    0.0100 N.ar      1 BBU1        0.0000
      2 C8          1.7620    1.3310    0.0160 C.ar      1 BBU1        0.0000
      3 H8          2.8080    1.6400    0.0200 H         1 BBU1        0.0000
      4 N7          0.7350    2.1620    0.0190 N.ar      1 BBU1        0.0000
      5 C5         -0.3940    1.3470    0.0170 C.ar      1 BBU1        0.0000
      6 C6         -1.7660    1.7000    0.0570 C.ar      1 BBU1        0.0000
      7 O6         -2.1830    2.8700    0.0520 O.2       1 BBU1        0.0000
      8 N1         -2.6390    0.5740    0.1930 N.ar      1 BBU1        0.0000
      9 C2         -2.2210   -0.7660    0.2350 C.ar      1 BBU1        0.0000
     10 N2         -3.2530   -1.5890    0.4900 N.ar      1 BBU1        0.0000
     11 N3         -0.8870   -1.0800   -0.0140 N.ar      1 BBU1        0.0000
     12 C4         -0.0010    0.0020   -0.0000 C.ar      1 BBU1        0.0000
     13 C12        -4.0090    0.5620    0.4150 C.ar      1 BBU1        0.0000
     14 C11        -4.3560   -0.7610    0.6010 C.ar      1 BBU1        0.0000
     15 C3         -0.5840   -2.4350   -0.5090 C.3       1 BBU1        0.0000
     16 H31        -1.5000   -2.9980   -0.8050 H         1 BBU1        0.0000
     17 H32        -0.0740   -3.0410    0.2750 H         1 BBU1        0.0000
     18 H33         0.0740   -2.4080   -1.4070 H         1 BBU1        0.0000
     19 C10        -5.6260   -1.4740    0.9300 C.3       1 BBU1        0.0000
     20 H101       -5.4630   -2.1490    1.7970 H         1 BBU1        0.0000
     21 H102       -5.9400   -2.0800    0.0550 H         1 BBU1        0.0000
     22 H103       -6.4330   -0.7620    1.1810 H         1 BBU1        0.0000
     23 C13        -4.8440    1.8480    0.4040 C.3       1 BBU1        0.0000
     24 H131       -4.5880    2.3950   -0.5330 H         1 BBU1        0.0000
     25 H132       -4.4660    2.4510    1.2550 H         1 BBU1        0.0000
     26 C14        -6.4070    1.8340    0.4640 C.3       1 BBU1        0.0000
     27 H14        -6.7110    1.3610    1.4270 H         1 BBU1        0.0000
     28 O14        -6.9030    1.0460   -0.6170 O.3       1 BBU1        0.0000
     29 H14O       -7.8710    1.1690   -0.5800 H         1 BBU1        0.0000
     30 C15        -6.9830    3.2620    0.3980 C.3       1 BBU1        0.0000
     31 H15        -6.8800    3.6370   -0.6450 H         1 BBU1        0.0000
     32 N16        -6.2620    4.2350    1.2990 N.4       1 BBU1        0.0000
     33 H161       -5.2670    4.3460    1.0300 H         1 BBU1        0.0000
     34 H162       -6.3620    3.8910    2.2750 H         1 BBU1        0.0000
     35 H163       -6.7810    5.1370    1.2360 H         1 BBU1        0.0000
     36 C17        -8.4930    3.2110    0.7120 C.2       1 BBU1        0.0000
     37 O18        -8.9050    3.9540    1.6420 O.co2     1 BBU1        0.0000
     38 O17        -9.1630    2.4220    0.0010 O.co2     1 BBU1        0.0000
     39 CM          2.3000   -1.1530    0.0140 C.3       1 BBU1        0.0000
     40 HM1         3.3620   -0.8440    0.1400 H         1 BBU1        0.0000
     41 HM2         2.2260   -1.7170   -0.9400 H         1 BBU1        0.0000
     42 HM3         2.0490   -1.8420    0.8510 H         1 BBU1        0.0000
@<TRIPOS>BOND
     1   18   15 1 
     2   41   39 1 
     3   16   15 1 
     4   31   30 1 
     5   28   29 1 
     6   28   26 1 
     7   24   23 1 
     8   15   11 1 
     9   15   17 1 
    10   11   12 ar
    11   11    9 ar
    12   12    1 ar
    13   12    5 ar
    14   38   36 ar
    15    1   39 1 
    16    1    2 ar
    17   39   40 1 
    18   39   42 1 
    19    2    4 ar
    20    2    3 1 
    21    5    4 ar
    22    5    6 ar
    23    7    6 2 
    24   21   19 1 
    25    6    8 ar
    26    8    9 ar
    27    8   13 ar
    28    9   10 ar
    29   30   26 1 
    30   30   36 1 
    31   30   32 1 
    32   23   13 1 
    33   23   26 1 
    34   23   25 1 
    35   13   14 ar
    36   26   27 1 
    37   10   14 ar
    38   14   19 1 
    39   36   37 ar
    40   19   22 1 
    41   19   20 1 
    42   33   32 1 
    43   35   32 1 
    44   32   34 1 
