@<TRIPOS>MOLECULE
C:\Users\Praveer\PycharmProjects\pdb_to_mol2_converter\data\pdb\bca.pdb
   26    27     0     0     0
SMALL
GASTEIGER

@<TRIPOS>ATOM
      1 CG1         1.4690    0.0000    0.0000 C.ar      1 BCA1        0.0000
      2 CG2        -0.0690    0.0000    0.0000 C.ar      1 BCA1        0.0000
      3 CD1         2.2180    1.2050    0.0000 C.ar      1 BCA1        0.0000
      4 HD1         1.7330    2.1680    0.0000 H         1 BCA1        0.0000
      5 CD2         2.2180   -1.2050    0.0000 C.ar      1 BCA1        0.0000
      6 HD2         1.7330   -2.1680    0.0000 H         1 BCA1        0.0000
      7 CE1         3.6200    1.2070    0.0000 C.ar      1 BCA1        0.0000
      8 HE1         4.1560    2.1460    0.0000 H         1 BCA1        0.0000
      9 CE2         3.6200   -1.2070    0.0000 C.ar      1 BCA1        0.0000
     10 HE2         4.1550   -2.1460    0.0000 H         1 BCA1        0.0000
     11 CD3        -0.8180    1.2050    0.0000 C.ar      1 BCA1        0.0000
     12 HD3        -0.3330    2.1680    0.0000 H         1 BCA1        0.0000
     13 CD4        -0.8180   -1.2050   -0.0000 C.ar      1 BCA1        0.0000
     14 HD4        -0.3330   -2.1680   -0.0000 H         1 BCA1        0.0000
     15 CE3        -2.2200    1.2070   -0.0000 C.ar      1 BCA1        0.0000
     16 HE3        -2.7550    2.1460    0.0000 H         1 BCA1        0.0000
     17 CE4        -2.2200   -1.2070   -0.0000 C.ar      1 BCA1        0.0000
     18 HE4        -2.7550   -2.1460   -0.0000 H         1 BCA1        0.0000
     19 CZ1         4.3470   -0.0000    0.0000 C.ar      1 BCA1        0.0000
     20 C1          5.8880    0.0000    0.0000 C.2       1 BCA1        0.0000
     21 O1A         6.4580   -1.1260    0.0000 O.co2     1 BCA1        0.0000
     22 O1B         6.4580    1.1260    0.0000 O.co2     1 BCA1        0.0000
     23 CZ2        -2.9470    0.0000   -0.0000 C.ar      1 BCA1        0.0000
     24 C2         -4.4880    0.0000   -0.0000 C.2       1 BCA1        0.0000
     25 O2A        -5.0580   -1.1260   -0.0000 O.co2     1 BCA1        0.0000
     26 O2B        -5.0580    1.1260   -0.0000 O.co2     1 BCA1        0.0000
@<TRIPOS>BOND
     1    1    2 1 
     2    1    3 ar
     3    1    5 ar
     4    2   11 ar
     5    2   13 ar
     6    3    4 1 
     7    3    7 ar
     8    5    6 1 
     9    5    9 ar
    10    7    8 1 
    11    7   19 ar
    12    9   10 1 
    13    9   19 ar
    14   11   12 1 
    15   11   15 ar
    16   13   14 1 
    17   13   17 ar
    18   15   16 1 
    19   15   23 ar
    20   17   18 1 
    21   17   23 ar
    22   19   20 1 
    23   20   21 ar
    24   20   22 ar
    25   23   24 1 
    26   24   25 ar
    27   24   26 ar
