@<TRIPOS>MOLECULE
C:\Users\Praveer\PycharmProjects\pdb_to_mol2_converter\data\pdb\bclipa.pdb
  274   275     0     0     0
SMALL
GASTEIGER

@<TRIPOS>ATOM
      1 HB6S       -7.9770    2.3340    0.8380 H         1 BCL1        0.0000
      2 OB6        -6.8010    0.8690    1.7630 O.3       1 BCL1        0.0000
      3 HOB6       -5.9780    0.4210    1.5550 H         1 BCL1        0.0000
      4 CB6        -7.0950    1.6890    0.6230 C.3       1 BCL1        0.0000
      5 HB6R       -7.3640    1.0440   -0.2430 H         1 BCL1        0.0000
      6 CB5        -5.9000    2.5460    0.2590 C.3       1 BCL1        0.0000
      7 OB5        -4.7430    1.7020    0.1360 O.3       1 BCL1        0.0000
      8 HB5        -5.7470    3.2730    1.0920 H         1 BCL1        0.0000
      9 CB1        -3.5550    2.4770   -0.0280 C.3       1 BCL1        0.0000
     10 HB1        -3.4190    3.1630    0.8380 H         1 BCL1        0.0000
     11 OA6        -2.4210    1.6630   -0.1630 O.3       1 BCL1        0.0000
     12 CA6        -2.1290    0.8980    1.0100 C.3       1 BCL1        0.0000
     13 HA6R       -2.5610   -0.1220    0.9080 H         1 BCL1        0.0000
     14 HA6S       -2.5580    1.3740    1.9180 H         1 BCL1        0.0000
     15 CB4        -6.0620    3.3060   -1.0450 C.3       1 BCL1        0.0000
     16 HB4        -6.1770    2.5540   -1.8650 H         1 BCL1        0.0000
     17 OB4        -7.2040    4.1350   -0.8810 O.3       1 BCL1        0.0000
     18 PB         -8.4340    4.1920   -1.9850 P.3       1 BCL1        0.0000
     19 OPB4       -8.3480    5.6050   -2.5660 O.3       1 BCL1        0.0000
     20 OPB3       -9.6840    3.9290   -1.1680 O.3       1 BCL1        0.0000
     21 OPB2       -8.1450    3.1100   -3.0200 O.2       1 BCL1        0.0000
     22 CB3        -4.8420    4.1500   -1.3160 C.3       1 BCL1        0.0000
     23 OB3        -4.9570    4.7610   -2.6000 O.3       1 BCL1        0.0000
     24 HB3        -4.7310    4.8890   -0.4810 H         1 BCL1        0.0000
     25 C71        -5.3600    6.0360   -2.6130 C.2       1 BCL1        0.0000
     26 O71        -5.0440    6.8510   -1.7430 O.2       1 BCL1        0.0000
     27 C72        -5.5780    6.4080   -4.0730 C.3       1 BCL1        0.0000
     28 H72R       -6.5670    5.9770   -4.3500 H         1 BCL1        0.0000
     29 H72S       -4.7950    5.9370   -4.6980 H         1 BCL1        0.0000
     30 CB2        -3.6070    3.2830   -1.3100 C.3       1 BCL1        0.0000
     31 HB2        -3.7090    2.5540   -2.1550 H         1 BCL1        0.0000
     32 NB2        -2.3840    4.0640   -1.4720 N.am      1 BCL1        0.0000
     33 HNB2       -2.0720    4.5390   -0.6620 H         1 BCL1        0.0000
     34 CA4         0.0250    2.1950    1.1760 C.3       1 BCL1        0.0000
     35 HA4        -0.2940    2.7240    0.2470 H         1 BCL1        0.0000
     36 OA4        -0.4450    2.9380    2.2950 O.3       1 BCL1        0.0000
     37 HOA4       -0.2160    3.8650    2.1080 H         1 BCL1        0.0000
     38 CA5        -0.6220    0.8160    1.1430 C.3       1 BCL1        0.0000
     39 HA5        -0.3670    0.2610    2.0750 H         1 BCL1        0.0000
     40 OA5        -0.1480    0.0610    0.0200 O.3       1 BCL1        0.0000
     41 CA1         1.2770   -0.1160    0.0070 C.3       1 BCL1        0.0000
     42 HA1         1.4890   -0.6170   -0.9720 H         1 BCL1        0.0000
     43 OA1         1.6870   -0.9220    1.1030 O.3       1 BCL1        0.0000
     44 OPA2        2.8390   -2.9220    2.1270 O.3       1 BCL1        0.0000
     45 OPA3        2.5070   -2.7700   -0.4030 O.2       1 BCL1        0.0000
     46 OPA4        4.1510   -1.2220    0.7440 O.3       1 BCL1        0.0000
     47 PA          2.8750   -2.0450    0.8740 P.3       1 BCL1        0.0000
     48 CA3         1.5390    2.0940    1.1440 C.3       1 BCL1        0.0000
     49 HA3         1.8550    1.5400    2.0630 H         1 BCL1        0.0000
     50 OA3         2.3460    3.2750    1.0850 O.3       1 BCL1        0.0000
     51 C31         1.9320    4.5100    0.9780 C.2       1 BCL1        0.0000
     52 O31         0.7950    4.9200    1.0300 O.2       1 BCL1        0.0000
     53 C32         3.1810    5.3710    1.1710 C.3       1 BCL1        0.0000
     54 H32R        3.9180    5.0790    0.3950 H         1 BCL1        0.0000
     55 H32S        3.6040    5.1370    2.1690 H         1 BCL1        0.0000
     56 CA2         1.9450    1.2410   -0.0330 C.3       1 BCL1        0.0000
     57 HA2         1.5310    1.7460   -0.9450 H         1 BCL1        0.0000
     58 NA2         3.3680    1.0910   -0.2200 N.am      1 BCL1        0.0000
     59 HNA2        3.7210    0.2110    0.1760 H         1 BCL1        0.0000
     60 C73        -5.5880    7.9280   -4.2820 C.3       1 BCL1        0.0000
     61 H73R       -6.3030    8.4060   -3.5720 H         1 BCL1        0.0000
     62 O73        -6.0480    8.1610   -5.6010 O.3       1 BCL1        0.0000
     63 HO73       -6.9270    7.8040   -5.7590 H         1 BCL1        0.0000
     64 C74        -4.2060    8.5970   -4.1360 C.3       1 BCL1        0.0000
     65 H74R       -3.4980    8.1460   -4.8650 H         1 BCL1        0.0000
     66 H74S       -3.8190    8.3820   -3.1160 H         1 BCL1        0.0000
     67 C75        -4.2340   10.1290   -4.3190 C.3       1 BCL1        0.0000
     68 H75R       -5.1920   10.5260   -3.9060 H         1 BCL1        0.0000
     69 H75S       -4.1950   10.3810   -5.4030 H         1 BCL1        0.0000
     70 C76        -3.0840   10.7910   -3.5510 C.3       1 BCL1        0.0000
     71 H76R       -2.1190   10.3110   -3.8180 H         1 BCL1        0.0000
     72 H76S       -3.2660   10.6120   -2.4650 H         1 BCL1        0.0000
     73 C77        -2.9550   12.3010   -3.7720 C.3       1 BCL1        0.0000
     74 H77R       -3.9560   12.7750   -3.7690 H         1 BCL1        0.0000
     75 H77S       -2.4890   12.4850   -4.7620 H         1 BCL1        0.0000
     76 C78        -2.1000   12.9410   -2.6760 C.3       1 BCL1        0.0000
     77 H78R       -1.1700   12.3460   -2.5820 H         1 BCL1        0.0000
     78 H78S       -2.6470   12.8490   -1.7150 H         1 BCL1        0.0000
     79 C79        -1.7420   14.4030   -2.9680 C.3       1 BCL1        0.0000
     80 H79R       -2.6840   14.9930   -2.9830 H         1 BCL1        0.0000
     81 H79S       -1.2870   14.4760   -3.9800 H         1 BCL1        0.0000
     82 C710       -0.7680   14.9860   -1.9340 C.3       1 BCL1        0.0000
     83 H710       -0.7660   14.3440   -1.0220 H         1 BCL1        0.0000
     84 H710       -1.1010   16.0090   -1.6400 H         1 BCL1        0.0000
     85 C711        0.6590   15.0800   -2.4990 C.3       1 BCL1        0.0000
     86 H711        0.8750   14.1850   -3.1180 H         1 BCL1        0.0000
     87 H711        1.3760   15.0560   -1.6560 H         1 BCL1        0.0000
     88 C712        0.8930   16.3530   -3.3370 C.3       1 BCL1        0.0000
     89 H712        0.5380   17.2430   -2.7760 H         1 BCL1        0.0000
     90 H712        0.2620   16.2960   -4.2440 H         1 BCL1        0.0000
     91 C713        2.3550   16.5800   -3.7640 C.3       1 BCL1        0.0000
     92 H713        2.8750   15.5980   -3.8330 H         1 BCL1        0.0000
     93 H713        2.8730   17.1650   -2.9710 H         1 BCL1        0.0000
     94 C714        2.5080   17.2970   -5.1120 C.3       1 BCL1        0.0000
     95 H714        2.1260   18.3380   -5.0530 H         1 BCL1        0.0000
     96 H714        1.9340   16.7610   -5.8990 H         1 BCL1        0.0000
     97 H714        3.5750   17.3350   -5.4230 H         1 BCL1        0.0000
     98 C51        -1.5830    4.0420   -2.5460 C.2       1 BCL1        0.0000
     99 O51        -1.9080    3.5870   -3.6330 O.2       1 BCL1        0.0000
    100 C52        -0.1870    4.5770   -2.3060 C.3       1 BCL1        0.0000
    101 H52R        0.4060    3.7570   -1.8460 H         1 BCL1        0.0000
    102 H52S       -0.2280    5.4290   -1.6000 H         1 BCL1        0.0000
    103 C53         0.4960    5.0090   -3.6130 C.3       1 BCL1        0.0000
    104 H53R        0.4120    4.1730   -4.3520 H         1 BCL1        0.0000
    105 O53         1.8570    5.3060   -3.2550 O.3       1 BCL1        0.0000
    106 C61         2.7850    4.8070   -4.0610 C.2       1 BCL1        0.0000
    107 O61         2.5660    4.2140   -5.1240 O.2       1 BCL1        0.0000
    108 C62         4.1800    5.2130   -3.6060 C.3       1 BCL1        0.0000
    109 H62R        4.9110    4.6990   -4.2580 H         1 BCL1        0.0000
    110 H62S        4.3120    4.8470   -2.5680 H         1 BCL1        0.0000
    111 C63         4.4240    6.7330   -3.6010 C.3       1 BCL1        0.0000
    112 H63R        5.3730    6.9290   -3.0460 H         1 BCL1        0.0000
    113 H63S        3.6030    7.2410   -3.0570 H         1 BCL1        0.0000
    114 C64         4.5510    7.3550   -4.9920 C.3       1 BCL1        0.0000
    115 H64R        3.6300    7.1740   -5.5860 H         1 BCL1        0.0000
    116 H64S        5.3930    6.8750   -5.5380 H         1 BCL1        0.0000
    117 C65         4.8000    8.8620   -4.8840 C.3       1 BCL1        0.0000
    118 H65R        5.6820    9.0260   -4.2240 H         1 BCL1        0.0000
    119 H65S        3.9260    9.3550   -4.4050 H         1 BCL1        0.0000
    120 C66         5.0670    9.5240   -6.2350 C.3       1 BCL1        0.0000
    121 H66R        4.1590    9.4560   -6.8740 H         1 BCL1        0.0000
    122 H66S        5.8820    8.9650   -6.7460 H         1 BCL1        0.0000
    123 C67         5.4820   10.9910   -6.0760 C.3       1 BCL1        0.0000
    124 H67R        6.1870   11.0930   -5.2190 H         1 BCL1        0.0000
    125 H67S        4.5800   11.5940   -5.8330 H         1 BCL1        0.0000
    126 C68         6.1550   11.5530   -7.3330 C.3       1 BCL1        0.0000
    127 H68R        5.9690   10.8740   -8.1940 H         1 BCL1        0.0000
    128 H68S        7.2540   11.5890   -7.1670 H         1 BCL1        0.0000
    129 C69         5.6530   12.9540   -7.6940 C.3       1 BCL1        0.0000
    130 H69R        5.7930   13.6220   -6.8160 H         1 BCL1        0.0000
    131 H69S        4.5630   12.9090   -7.9170 H         1 BCL1        0.0000
    132 C610        6.3970   13.5400   -8.8990 C.3       1 BCL1        0.0000
    133 H610        6.1210   12.9660   -9.8120 H         1 BCL1        0.0000
    134 H610        7.4930   13.4190   -8.7420 H         1 BCL1        0.0000
    135 C611        6.0980   15.0290   -9.1090 C.3       1 BCL1        0.0000
    136 H611        6.4730   15.5940   -8.2250 H         1 BCL1        0.0000
    137 H611        4.9970   15.1840   -9.1690 H         1 BCL1        0.0000
    138 C612        6.7530   15.5850  -10.3800 C.3       1 BCL1        0.0000
    139 H612        6.2470   15.1450  -11.2680 H         1 BCL1        0.0000
    140 H612        7.8220   15.2730  -10.4110 H         1 BCL1        0.0000
    141 C613        6.6880   17.1150  -10.4580 C.3       1 BCL1        0.0000
    142 H613        7.3030   17.5380   -9.6300 H         1 BCL1        0.0000
    143 H613        5.6360   17.4410  -10.2930 H         1 BCL1        0.0000
    144 C614        7.1820   17.6770  -11.7930 C.3       1 BCL1        0.0000
    145 H614        6.5280   17.3340  -12.6230 H         1 BCL1        0.0000
    146 H614        8.2190   17.3360  -12.0010 H         1 BCL1        0.0000
    147 H614        7.1740   18.7890  -11.7760 H         1 BCL1        0.0000
    148 C54        -0.1590    6.2790   -4.2130 C.3       1 BCL1        0.0000
    149 H54R       -0.2150    7.0590   -3.4250 H         1 BCL1        0.0000
    150 H54S       -1.1980    6.0220   -4.5200 H         1 BCL1        0.0000
    151 C55         0.5820    6.8500   -5.4330 C.3       1 BCL1        0.0000
    152 H55R        0.7430    6.0320   -6.1730 H         1 BCL1        0.0000
    153 H55S        1.5790    7.2100   -5.0980 H         1 BCL1        0.0000
    154 C56        -0.1390    8.0080   -6.1370 C.3       1 BCL1        0.0000
    155 H56R       -0.1820    8.8790   -5.4490 H         1 BCL1        0.0000
    156 H56S       -1.1890    7.7140   -6.3640 H         1 BCL1        0.0000
    157 C57         0.5730    8.3900   -7.4490 C.3       1 BCL1        0.0000
    158 H57R        0.0710    7.8660   -8.2930 H         1 BCL1        0.0000
    159 H57S        1.6250    8.0250   -7.4080 H         1 BCL1        0.0000
    160 C58         0.6280    9.8970   -7.7270 C.3       1 BCL1        0.0000
    161 H58R        1.2710   10.3780   -6.9560 H         1 BCL1        0.0000
    162 H58S       -0.3930   10.3340   -7.6430 H         1 BCL1        0.0000
    163 C59         1.2070   10.2260   -9.1120 C.3       1 BCL1        0.0000
    164 H59R        0.5840    9.7320   -9.8880 H         1 BCL1        0.0000
    165 H59S        2.2360    9.8140   -9.1890 H         1 BCL1        0.0000
    166 C510        1.2330   11.7340   -9.3840 C.3       1 BCL1        0.0000
    167 H510        1.8880   12.2290   -8.6350 H         1 BCL1        0.0000
    168 H510        0.1960   12.1170   -9.2590 H         1 BCL1        0.0000
    169 C511        1.7060   12.1290  -10.7850 C.3       1 BCL1        0.0000
    170 H511        1.0840   11.5850  -11.5330 H         1 BCL1        0.0000
    171 H511        2.7670   11.8220  -10.9300 H         1 BCL1        0.0000
    172 C512        1.5590   13.6430  -11.0180 C.3       1 BCL1        0.0000
    173 H512        2.1930   14.2000  -10.2920 H         1 BCL1        0.0000
    174 H512        0.4980   13.9270  -10.8300 H         1 BCL1        0.0000
    175 C513        1.9340   14.0390  -12.4480 C.3       1 BCL1        0.0000
    176 H513        1.3780   13.3760  -13.1510 H         1 BCL1        0.0000
    177 H513        3.0210   13.8560  -12.6010 H         1 BCL1        0.0000
    178 C514        1.6130   15.4940  -12.8220 C.3       1 BCL1        0.0000
    179 H514        2.1940   16.1870  -12.1760 H         1 BCL1        0.0000
    180 H514        0.5320   15.6920  -12.6510 H         1 BCL1        0.0000
    181 C515        1.9560   15.7350  -14.3000 C.3       1 BCL1        0.0000
    182 H515        1.3820   14.9960  -14.9070 H         1 BCL1        0.0000
    183 H515        3.0380   15.5100  -14.4410 H         1 BCL1        0.0000
    184 C516        1.6670   17.1390  -14.8380 C.3       1 BCL1        0.0000
    185 H516        2.2460   17.9050  -14.2800 H         1 BCL1        0.0000
    186 H516        0.5860   17.3790  -14.7610 H         1 BCL1        0.0000
    187 H516        1.9590   17.1940  -15.9100 H         1 BCL1        0.0000
    188 C33         2.9010    6.8800    1.0870 C.3       1 BCL1        0.0000
    189 H33R        3.8500    7.4170    1.3310 H         1 BCL1        0.0000
    190 O33         1.9370    7.2530    2.0500 O.3       1 BCL1        0.0000
    191 HO33        1.0860    6.8130    1.9260 H         1 BCL1        0.0000
    192 C34         2.4680    7.3550   -0.3050 C.3       1 BCL1        0.0000
    193 H34R        1.5110    6.8780   -0.6070 H         1 BCL1        0.0000
    194 H34S        3.2460    7.0100   -1.0180 H         1 BCL1        0.0000
    195 C35         2.3270    8.8840   -0.4260 C.3       1 BCL1        0.0000
    196 H35R        3.1950    9.3930    0.0510 H         1 BCL1        0.0000
    197 H35S        1.4030    9.2010    0.1100 H         1 BCL1        0.0000
    198 C36         2.2520    9.2890   -1.8990 C.3       1 BCL1        0.0000
    199 H36R        1.6530    8.5070   -2.4240 H         1 BCL1        0.0000
    200 H36S        3.2730    9.2930   -2.3360 H         1 BCL1        0.0000
    201 C37         1.5760   10.6310   -2.1830 C.3       1 BCL1        0.0000
    202 H37R        2.2110   11.4780   -1.8540 H         1 BCL1        0.0000
    203 H37S        0.6340   10.6700   -1.5860 H         1 BCL1        0.0000
    204 C38         1.1930   10.7160   -3.6690 C.3       1 BCL1        0.0000
    205 H38R        0.0810   10.7950   -3.7070 H         1 BCL1        0.0000
    206 H38S        1.4490    9.7590   -4.1760 H         1 BCL1        0.0000
    207 C39         1.7870   11.8700   -4.4880 C.3       1 BCL1        0.0000
    208 H39R        2.5480   11.4570   -5.1940 H         1 BCL1        0.0000
    209 H39S        2.2870   12.6140   -3.8220 H         1 BCL1        0.0000
    210 C310        0.6420   12.5250   -5.2880 C.3       1 BCL1        0.0000
    211 H310       -0.1050   12.9000   -4.5580 H         1 BCL1        0.0000
    212 H310        0.1250   11.7510   -5.9030 H         1 BCL1        0.0000
    213 C311        1.0870   13.6720   -6.2040 C.3       1 BCL1        0.0000
    214 H311        1.9690   13.3300   -6.7970 H         1 BCL1        0.0000
    215 H311        1.4220   14.5320   -5.5860 H         1 BCL1        0.0000
    216 C312        0.0060   14.1400   -7.2060 C.3       1 BCL1        0.0000
    217 H312       -0.4930   13.2860   -7.7080 H         1 BCL1        0.0000
    218 H312        0.5360   14.7220   -7.9980 H         1 BCL1        0.0000
    219 C313       -1.0900   15.0720   -6.6670 C.3       1 BCL1        0.0000
    220 H313       -0.7850   15.4530   -5.6760 H         1 BCL1        0.0000
    221 H313       -2.0480   14.5170   -6.5360 H         1 BCL1        0.0000
    222 C314       -1.3070   16.2730   -7.5930 C.3       1 BCL1        0.0000
    223 H314       -1.6560   15.9160   -8.5880 H         1 BCL1        0.0000
    224 H314       -0.3400   16.8100   -7.7230 H         1 BCL1        0.0000
    225 H314       -2.0480   16.9900   -7.1760 H         1 BCL1        0.0000
    226 C11         4.0550    1.6820   -1.1880 C.2       1 BCL1        0.0000
    227 O11         3.7960    2.8170   -1.5860 O.2       1 BCL1        0.0000
    228 C12         5.0820    0.8040   -1.8640 C.3       1 BCL1        0.0000
    229 H12R        4.5030   -0.0080   -2.3570 H         1 BCL1        0.0000
    230 H12S        5.7170    0.3300   -1.0880 H         1 BCL1        0.0000
    231 C13         5.9360    1.5810   -2.8790 C.3       1 BCL1        0.0000
    232 H13R        5.3450    2.3770   -3.3860 H         1 BCL1        0.0000
    233 O13         6.3570    0.6630   -3.8740 O.3       1 BCL1        0.0000
    234 HO13        5.6340    0.2160   -4.3170 H         1 BCL1        0.0000
    235 C14         7.1860    2.1910   -2.2130 C.3       1 BCL1        0.0000
    236 H14R        7.7140    1.3570   -1.6960 H         1 BCL1        0.0000
    237 H14S        6.8530    2.9110   -1.4360 H         1 BCL1        0.0000
    238 C15         8.2000    2.8740   -3.1550 C.3       1 BCL1        0.0000
    239 H15R        8.5630    2.1320   -3.9020 H         1 BCL1        0.0000
    240 H15S        9.0750    3.1860   -2.5400 H         1 BCL1        0.0000
    241 C16         7.6540    4.1050   -3.8930 C.3       1 BCL1        0.0000
    242 H16R        7.0910    4.7360   -3.1720 H         1 BCL1        0.0000
    243 H16S        6.9480    3.7670   -4.6820 H         1 BCL1        0.0000
    244 C17         8.7610    4.9610   -4.5290 C.3       1 BCL1        0.0000
    245 H17R        9.3910    4.3220   -5.1850 H         1 BCL1        0.0000
    246 H17S        9.4080    5.3470   -3.7100 H         1 BCL1        0.0000
    247 C18         8.2160    6.1480   -5.3390 C.3       1 BCL1        0.0000
    248 H18R        7.4570    6.6710   -4.7140 H         1 BCL1        0.0000
    249 H18S        7.7060    5.7690   -6.2530 H         1 BCL1        0.0000
    250 C19         9.2970    7.1720   -5.7320 C.3       1 BCL1        0.0000
    251 H19R       10.0420    6.7010   -6.4100 H         1 BCL1        0.0000
    252 H19S        9.8300    7.4820   -4.8040 H         1 BCL1        0.0000
    253 C110        8.7070    8.4300   -6.3930 C.3       1 BCL1        0.0000
    254 H110        7.8850    8.7870   -5.7280 H         1 BCL1        0.0000
    255 H110        8.2550    8.1800   -7.3770 H         1 BCL1        0.0000
    256 C111        9.7050    9.5910   -6.5420 C.3       1 BCL1        0.0000
    257 H111       10.3650    9.6270   -5.6480 H         1 BCL1        0.0000
    258 H111        9.1260   10.5430   -6.5600 H         1 BCL1        0.0000
    259 C112       10.5600    9.5590   -7.8200 C.3       1 BCL1        0.0000
    260 H112        9.8880    9.5890   -8.7060 H         1 BCL1        0.0000
    261 H112       11.1400    8.6120   -7.8610 H         1 BCL1        0.0000
    262 C113       11.5220   10.7580   -7.8770 C.3       1 BCL1        0.0000
    263 H113       12.2420   10.6770   -7.0320 H         1 BCL1        0.0000
    264 H113       10.9390   11.6950   -7.7320 H         1 BCL1        0.0000
    265 C114       12.3090   10.8800   -9.1910 C.3       1 BCL1        0.0000
    266 H114       11.5980   11.0050  -10.0370 H         1 BCL1        0.0000
    267 H114       12.8860    9.9440   -9.3670 H         1 BCL1        0.0000
    268 C115       13.2780   12.0730   -9.1660 C.3       1 BCL1        0.0000
    269 H115       13.9800   11.9400   -8.3120 H         1 BCL1        0.0000
    270 H115       12.6930   13.0020   -8.9720 H         1 BCL1        0.0000
    271 C116       14.0870   12.2540  -10.4530 C.3       1 BCL1        0.0000
    272 H116       13.4130   12.4290  -11.3190 H         1 BCL1        0.0000
    273 H116       14.7000   11.3510  -10.6600 H         1 BCL1        0.0000
    274 H116       14.7710   13.1260  -10.3610 H         1 BCL1        0.0000
@<TRIPOS>BOND
     1  187  184 1 
     2  182  181 1 
     3  184  186 1 
     4  184  181 1 
     5  184  185 1 
     6  183  181 1 
     7  181  178 1 
     8  176  175 1 
     9  178  180 1 
    10  178  175 1 
    11  178  179 1 
    12  145  144 1 
    13  177  175 1 
    14  175  172 1 
    15  146  144 1 
    16  144  147 1 
    17  144  141 1 
    18  170  169 1 
    19  272  271 1 
    20  139  138 1 
    21  172  174 1 
    22  172  169 1 
    23  172  173 1 
    24  171  169 1 
    25  169  166 1 
    26  273  271 1 
    27  141  138 1 
    28  141  143 1 
    29  141  142 1 
    30  271  274 1 
    31  271  268 1 
    32  140  138 1 
    33  138  135 1 
    34  266  265 1 
    35  164  163 1 
    36  133  132 1 
    37  166  168 1 
    38  166  163 1 
    39  166  167 1 
    40  267  265 1 
    41  265  268 1 
    42  265  262 1 
    43  165  163 1 
    44  137  135 1 
    45  268  270 1 
    46  268  269 1 
    47  163  160 1 
    48  135  132 1 
    49  135  136 1 
    50  132  134 1 
    51  132  129 1 
    52  260  259 1 
    53  223  222 1 
    54  158  157 1 
    55  127  126 1 
    56  218  216 1 
    57  131  129 1 
    58  262  259 1 
    59  262  264 1 
    60  262  263 1 
    61  261  259 1 
    62  259  256 1 
    63  160  162 1 
    64  160  157 1 
    65  160  161 1 
    66  224  222 1 
    67  217  216 1 
    68  129  126 1 
    69  129  130 1 
    70  222  225 1 
    71  222  219 1 
    72  157  159 1 
    73  157  154 1 
    74  255  253 1 
    75  126  128 1 
    76  126  123 1 
    77  216  219 1 
    78  216  213 1 
    79  121  120 1 
    80  214  213 1 
    81  122  120 1 
    82  219  221 1 
    83  219  220 1 
    84  258  256 1 
    85  256  253 1 
    86  256  257 1 
    87  251  250 1 
    88  253  250 1 
    89  253  254 1 
    90  156  154 1 
    91  249  247 1 
    92  120  123 1 
    93  120  117 1 
    94  213  215 1 
    95  213  210 1 
    96  152  151 1 
    97  154  155 1 
    98  154  151 1 
    99  123  125 1 
   100  123  124 1 
   101  212  210 1 
   102   96   94 1 
   103   63   62 1 
   104  250  247 1 
   105  250  252 1 
   106   62   60 1 
   107  115  114 1 
   108  116  114 1 
   109  151  153 1 
   110  151  148 1 
   111   97   94 1 
   112   69   67 1 
   113  247  248 1 
   114  247  244 1 
   115  210  211 1 
   116  210  207 1 
   117  208  207 1 
   118  245  244 1 
   119  107  106 2 
   120   94   95 1 
   121   94   91 1 
   122  114  117 1 
   123  114  111 1 
   124  117  119 1 
   125  117  118 1 
   126   65   64 1 
   127   75   73 1 
   128   29   27 1 
   129  243  241 1 
   130  244  241 1 
   131  244  246 1 
   132  150  148 1 
   133  207  209 1 
   134  207  204 1 
   135  104  103 1 
   136   28   27 1 
   137   67   64 1 
   138   67   68 1 
   139   67   70 1 
   140  234  233 1 
   141   60   64 1 
   142   60   27 1 
   143   60   61 1 
   144  109  108 1 
   145   90   88 1 
   146  148  103 1 
   147  148  149 1 
   148  206  204 1 
   149   64   66 1 
   150   27   25 1 
   151  106  108 1 
   152  106  105 1 
   153   81   79 1 
   154  239  238 1 
   155  241  242 1 
   156  241  238 1 
   157  233  231 1 
   158   92   91 1 
   159   71   70 1 
   160   73   74 1 
   161   73   70 1 
   162   73   76 1 
   163   91   88 1 
   164   91   93 1 
   165  205  204 1 
   166  204  201 1 
   167   99   98 2 
   168  103  105 1 
   169  103  100 1 
   170  108  111 1 
   171  108  110 1 
   172  111  113 1 
   173  111  112 1 
   174   70   72 1 
   175  232  231 1 
   176   88   89 1 
   177   88   85 1 
   178  238  240 1 
   179  238  235 1 
   180   86   85 1 
   181   21   18 2 
   182   80   79 1 
   183   79   76 1 
   184   79   82 1 
   185  231  235 1 
   186  231  228 1 
   187   76   77 1 
   188   76   78 1 
   189   25   23 1 
   190   25   26 2 
   191   23   22 1 
   192   19   18 1 
   193   98  100 1 
   194   98   32 am
   195   85   82 1 
   196   85   87 1 
   197  199  198 1 
   198  229  228 1 
   199  200  198 1 
   200  100  101 1 
   201  100  102 1 
   202  235  236 1 
   203  235  237 1 
   204  201  198 1 
   205  201  202 1 
   206  201  203 1 
   207   31   30 1 
   208   18   20 1 
   209   18   17 1 
   210   82   84 1 
   211   82   83 1 
   212  198  195 1 
   213   16   15 1 
   214  228  226 1 
   215  228  230 1 
   216  227  226 2 
   217   32   30 1 
   218   32   33 1 
   219   22   30 1 
   220   22   15 1 
   221   22   24 1 
   222   30    9 1 
   223  226   58 am
   224   15   17 1 
   225   15    6 1 
   226  194  192 1 
   227   42   41 1 
   228   57   56 1 
   229  193  192 1 
   230  195  192 1 
   231  195  196 1 
   232  195  197 1 
   233   45   47 2 
   234  192  188 1 
   235    5    4 1 
   236   58   56 1 
   237   58   59 1 
   238   11    9 1 
   239   11   12 1 
   240   56   41 1 
   241   56   48 1 
   242    9    7 1 
   243    9   10 1 
   244   41   40 1 
   245   41   43 1 
   246   40   38 1 
   247    7    6 1 
   248   35   34 1 
   249    6    4 1 
   250    6    8 1 
   251   54   53 1 
   252    4    1 1 
   253    4    2 1 
   254   46   47 1 
   255   47   43 1 
   256   47   44 1 
   257   13   12 1 
   258   51   52 2 
   259   51   50 1 
   260   51   53 1 
   261   12   38 1 
   262   12   14 1 
   263   50   48 1 
   264  188   53 1 
   265  188  189 1 
   266  188  190 1 
   267   38   34 1 
   268   38   39 1 
   269   48   34 1 
   270   48   49 1 
   271   53   55 1 
   272   34   36 1 
   273    3    2 1 
   274  191  190 1 
   275   37   36 1 
