@<TRIPOS>MOLECULE
C:\Users\Praveer\PycharmProjects\pdb_to_mol2_converter\data\pdb\bclipc.pdb
  314   317     0     0     0
SMALL
GASTEIGER

@<TRIPOS>ATOM
      1 HB6S       -7.5630    2.9450    1.5740 H         1 BCL1        0.0000
      2 OB6        -6.4390    1.3810    2.3290 O.3       1 BCL1        0.0000
      3 HOB6       -5.6890    0.8470    2.0380 H         1 BCL1        0.0000
      4 CB6        -6.8400    2.1780    1.2190 C.3       1 BCL1        0.0000
      5 HB6R       -7.3410    1.5240    0.4800 H         1 BCL1        0.0000
      6 CB5        -5.6730    2.8530    0.5500 C.3       1 BCL1        0.0000
      7 OB5        -4.6380    1.8910    0.3490 O.3       1 BCL1        0.0000
      8 HB5        -5.3180    3.6680    1.2270 H         1 BCL1        0.0000
      9 CB1        -3.4210    2.5400   -0.0080 C.3       1 BCL1        0.0000
     10 HB1        -3.1220    3.2390    0.8060 H         1 BCL1        0.0000
     11 OA6        -2.4030    1.6060   -0.2020 O.3       1 BCL1        0.0000
     12 CA6        -2.1290    0.8640    0.9850 C.3       1 BCL1        0.0000
     13 HA6R       -2.5370   -0.1660    0.8740 H         1 BCL1        0.0000
     14 HA6S       -2.5990    1.3310    1.8800 H         1 BCL1        0.0000
     15 CB4        -5.9630    3.3870   -0.8360 C.3       1 BCL1        0.0000
     16 HB4        -6.0590    2.5020   -1.5160 H         1 BCL1        0.0000
     17 OB4        -7.1400    4.1950   -0.7670 O.3       1 BCL1        0.0000
     18 OD1        -9.5900    3.4880   -0.7330 O.3       1 BCL1        0.0000
     19 PB         -8.4100    3.8990   -1.7970 P.3       1 BCL1        0.0000
     20 OPB3       -8.0600    2.6860   -2.6470 O.2       1 BCL1        0.0000
     21 OPB4       -8.7730    5.1870   -2.5220 O.3       1 BCL1        0.0000
     22 CD1       -10.5540    2.4600   -0.8440 C.3       1 BCL1        0.0000
     23 HD1       -11.4190    2.8630   -0.2600 H         1 BCL1        0.0000
     24 CD5       -10.5580    1.2150   -2.9850 C.3       1 BCL1        0.0000
     25 HD51       -9.7730    1.6570   -3.6330 H         1 BCL1        0.0000
     26 HD52      -11.3360    0.9290   -3.7260 H         1 BCL1        0.0000
     27 OD5       -11.1160    2.2690   -2.1640 O.3       1 BCL1        0.0000
     28 CD2       -10.2320    1.1420   -0.1700 C.3       1 BCL1        0.0000
     29 HD2       -11.2030    0.5900   -0.1100 H         1 BCL1        0.0000
     30 OD2        -9.8590    1.2890    1.1950 O.3       1 BCL1        0.0000
     31 HOD2       -9.3420    2.0950    1.3180 H         1 BCL1        0.0000
     32 CD3        -9.2990    0.2920   -1.0000 C.3       1 BCL1        0.0000
     33 HD3        -8.3760    0.8660   -1.2260 H         1 BCL1        0.0000
     34 OD3        -8.8910   -0.8980   -0.3160 O.3       1 BCL1        0.0000
     35 HOD3       -8.5090   -0.6380    0.5390 H         1 BCL1        0.0000
     36 CD4        -9.9890   -0.0320   -2.3080 C.3       1 BCL1        0.0000
     37 HD4        -9.2080   -0.4600   -2.9860 H         1 BCL1        0.0000
     38 ND4       -10.9900   -1.0690   -2.1520 N.4       1 BCL1        0.0000
     39 HND1      -11.1960   -1.5430   -3.0520 H         1 BCL1        0.0000
     40 HND2      -11.8560   -0.6560   -1.7470 H         1 BCL1        0.0000
     41 HND3      -10.5840   -1.7520   -1.4680 H         1 BCL1        0.0000
     42 CB3        -4.7730    4.1910   -1.2940 C.3       1 BCL1        0.0000
     43 OB3        -4.9950    4.6700   -2.6220 O.3       1 BCL1        0.0000
     44 HB3        -4.5710    5.0020   -0.5480 H         1 BCL1        0.0000
     45 C71        -5.3790    5.9400   -2.7290 C.2       1 BCL1        0.0000
     46 O71        -5.3320    6.7640   -1.8320 O.2       1 BCL1        0.0000
     47 C72        -5.6440    6.2640   -4.1850 C.3       1 BCL1        0.0000
     48 H72R       -6.6480    5.8560   -4.4320 H         1 BCL1        0.0000
     49 H72S       -4.8840    5.7750   -4.8270 H         1 BCL1        0.0000
     50 CB2        -3.5410    3.3110   -1.3070 C.3       1 BCL1        0.0000
     51 HB2        -3.6710    2.5590   -2.1300 H         1 BCL1        0.0000
     52 NB2        -2.3300    4.0880   -1.5200 N.am      1 BCL1        0.0000
     53 HNB2       -2.0060    4.6080   -0.7420 H         1 BCL1        0.0000
     54 CA4         0.0280    2.1890    1.1730 C.3       1 BCL1        0.0000
     55 HA4        -0.2600    2.7130    0.2310 H         1 BCL1        0.0000
     56 OA4        -0.4620    2.9380    2.2790 O.3       1 BCL1        0.0000
     57 HOA4       -0.2180    3.8640    2.1100 H         1 BCL1        0.0000
     58 CA5        -0.6330    0.8170    1.1570 C.3       1 BCL1        0.0000
     59 HA5        -0.4100    0.2910    2.1140 H         1 BCL1        0.0000
     60 OA5        -0.1580    0.0290    0.0620 O.3       1 BCL1        0.0000
     61 CA1         1.2460   -0.1870    0.0910 C.3       1 BCL1        0.0000
     62 HA1         1.4380   -0.6780   -0.8990 H         1 BCL1        0.0000
     63 OA1         1.5310   -1.0480    1.1880 O.3       1 BCL1        0.0000
     64 OC1         2.2340   -3.4310    1.8690 O.3       1 BCL1        0.0000
     65 OPA3        2.8730   -2.5290   -0.4470 O.2       1 BCL1        0.0000
     66 OPA4        3.9780   -1.5040    1.6480 O.3       1 BCL1        0.0000
     67 PA          2.7470   -2.1380    1.0130 P.3       1 BCL1        0.0000
     68 CC1         2.2500   -3.7020    3.2450 C.3       1 BCL1        0.0000
     69 HC1         1.3720   -4.3810    3.3890 H         1 BCL1        0.0000
     70 CC7         4.6070   -3.8070    3.6870 C.3       1 BCL1        0.0000
     71 HC71        4.8640   -3.3140    2.7300 H         1 BCL1        0.0000
     72 HC72        5.4300   -4.5400    3.8500 H         1 BCL1        0.0000
     73 OC7         3.3800   -4.5360    3.5550 O.3       1 BCL1        0.0000
     74 CC3         2.0860   -2.6400    4.3280 C.3       1 BCL1        0.0000
     75 HC3         1.8330   -3.2300    5.2480 H         1 BCL1        0.0000
     76 OC3         0.9430   -1.8140    4.1320 O.3       1 BCL1        0.0000
     77 HOC3        0.8070   -1.6550    3.1860 H         1 BCL1        0.0000
     78 CC5         3.3440   -1.8730    4.6890 C.3       1 BCL1        0.0000
     79 HC5         3.5490   -1.1360    3.8840 H         1 BCL1        0.0000
     80 OC5         3.1520   -1.1180    5.8890 O.3       1 BCL1        0.0000
     81 HOC5        2.3490   -0.5830    5.7760 H         1 BCL1        0.0000
     82 CC6         4.5460   -2.8050    4.8200 C.3       1 BCL1        0.0000
     83 HC6         5.4600   -2.1640    4.7740 H         1 BCL1        0.0000
     84 NC6         4.5940   -3.5020    6.0900 N.4       1 BCL1        0.0000
     85 HNC1        5.5510   -3.8500    6.2960 H         1 BCL1        0.0000
     86 HNC3        3.9260   -4.3000    6.0530 H         1 BCL1        0.0000
     87 HNC5        4.2850   -2.8200    6.8210 H         1 BCL1        0.0000
     88 CA3         1.5460    2.0580    1.1970 C.3       1 BCL1        0.0000
     89 HA3         1.8030    1.5210    2.1430 H         1 BCL1        0.0000
     90 OA3         2.3850    3.2190    1.1550 O.3       1 BCL1        0.0000
     91 C31         1.9980    4.4720    1.0450 C.2       1 BCL1        0.0000
     92 O31         0.8560    4.8920    1.0650 O.2       1 BCL1        0.0000
     93 C32         3.2530    5.3360    1.1740 C.3       1 BCL1        0.0000
     94 H32R        3.9370    5.0640    0.3440 H         1 BCL1        0.0000
     95 H32S        3.7470    5.0780    2.1340 H         1 BCL1        0.0000
     96 CA2         1.9780    1.1480    0.0580 C.3       1 BCL1        0.0000
     97 HA2         1.5880    1.6480   -0.8710 H         1 BCL1        0.0000
     98 NA2         3.4130    0.9660   -0.1280 N.am      1 BCL1        0.0000
     99 HNA2        3.7830    0.1120    0.2380 H         1 BCL1        0.0000
    100 C73        -5.6130    7.7860   -4.3820 C.3       1 BCL1        0.0000
    101 H73R       -6.3140    8.2810   -3.6700 H         1 BCL1        0.0000
    102 O73        -6.0710    8.0400   -5.6980 O.3       1 BCL1        0.0000
    103 HO73       -6.9860    7.7930   -5.8590 H         1 BCL1        0.0000
    104 C74        -4.2070    8.4160   -4.2200 C.3       1 BCL1        0.0000
    105 H74R       -3.5260    7.9890   -4.9920 H         1 BCL1        0.0000
    106 H74S       -3.8110    8.1420   -3.2160 H         1 BCL1        0.0000
    107 C75        -4.2040    9.9590   -4.3290 C.3       1 BCL1        0.0000
    108 H75R       -5.1380   10.3630   -3.8750 H         1 BCL1        0.0000
    109 H75S       -4.2030   10.2480   -5.4020 H         1 BCL1        0.0000
    110 C76        -3.0090   10.6110   -3.6070 C.3       1 BCL1        0.0000
    111 H76R       -2.0820   10.0500   -3.8440 H         1 BCL1        0.0000
    112 H76S       -3.1830   10.5070   -2.5150 H         1 BCL1        0.0000
    113 C77        -2.7810   12.1020   -3.9410 C.3       1 BCL1        0.0000
    114 H77R       -3.7490   12.5490   -4.2400 H         1 BCL1        0.0000
    115 H77S       -2.1200   12.1540   -4.8310 H         1 BCL1        0.0000
    116 C78        -2.1830   12.9170   -2.7670 C.3       1 BCL1        0.0000
    117 H78R       -1.3160   12.3460   -2.3760 H         1 BCL1        0.0000
    118 H78S       -2.9550   12.9900   -1.9620 H         1 BCL1        0.0000
    119 C79        -1.6780   14.3460   -3.1150 C.3       1 BCL1        0.0000
    120 H79R       -2.5680   14.9960   -3.1470 H         1 BCL1        0.0000
    121 H79S       -1.2990   14.3860   -4.1480 H         1 BCL1        0.0000
    122 C710       -0.6260   14.9370   -2.1300 C.3       1 BCL1        0.0000
    123 H710       -0.4960   14.1780   -1.3170 H         1 BCL1        0.0000
    124 H710       -0.9960   15.8710   -1.6490 H         1 BCL1        0.0000
    125 C711        0.8020   15.1940   -2.6970 C.3       1 BCL1        0.0000
    126 H711        1.1310   14.3150   -3.2820 H         1 BCL1        0.0000
    127 H711        1.5000   15.2470   -1.8320 H         1 BCL1        0.0000
    128 C712        1.0590   16.4710   -3.5420 C.3       1 BCL1        0.0000
    129 H712        0.7500   17.3940   -3.0100 H         1 BCL1        0.0000
    130 H712        0.4770   16.4460   -4.4760 H         1 BCL1        0.0000
    131 C713        2.5350   16.6200   -3.9830 C.3       1 BCL1        0.0000
    132 H713        2.9910   15.6110   -4.0330 H         1 BCL1        0.0000
    133 H713        3.0900   17.1750   -3.2000 H         1 BCL1        0.0000
    134 C714        2.7690   17.2900   -5.3480 C.3       1 BCL1        0.0000
    135 H714        2.3090   18.2980   -5.3750 H         1 BCL1        0.0000
    136 H714        2.3220   16.6880   -6.1660 H         1 BCL1        0.0000
    137 H714        3.8590   17.3900   -5.5600 H         1 BCL1        0.0000
    138 C51        -1.5270    4.0020   -2.5830 C.2       1 BCL1        0.0000
    139 O51        -1.8530    3.4830   -3.6420 O.2       1 BCL1        0.0000
    140 C52        -0.1380    4.5430   -2.3560 C.3       1 BCL1        0.0000
    141 H52R        0.4870    3.7100   -1.9660 H         1 BCL1        0.0000
    142 H52S       -0.1640    5.3520   -1.5990 H         1 BCL1        0.0000
    143 C53         0.4910    5.0640   -3.6510 C.3       1 BCL1        0.0000
    144 H53R        0.3940    4.2810   -4.4450 H         1 BCL1        0.0000
    145 O53         1.8510    5.3570   -3.3060 O.3       1 BCL1        0.0000
    146 C61         2.7730    4.8120   -4.0870 C.2       1 BCL1        0.0000
    147 O61         2.5670    4.1560   -5.0960 O.2       1 BCL1        0.0000
    148 C62         4.1610    5.2130   -3.6060 C.3       1 BCL1        0.0000
    149 H62R        4.8980    4.7220   -4.2710 H         1 BCL1        0.0000
    150 H62S        4.2840    4.8140   -2.5790 H         1 BCL1        0.0000
    151 C63         4.3840    6.7380   -3.5800 C.3       1 BCL1        0.0000
    152 H63R        5.3120    6.9410   -2.9970 H         1 BCL1        0.0000
    153 H63S        3.5460    7.2420   -3.0550 H         1 BCL1        0.0000
    154 C64         4.5470    7.3640   -4.9670 C.3       1 BCL1        0.0000
    155 H64R        3.6110    7.2450   -5.5560 H         1 BCL1        0.0000
    156 H64S        5.3560    6.8400   -5.5220 H         1 BCL1        0.0000
    157 C65         4.8900    8.8520   -4.8510 C.3       1 BCL1        0.0000
    158 H65R        5.8410    8.9540   -4.2790 H         1 BCL1        0.0000
    159 H65S        4.0930    9.3740   -4.2780 H         1 BCL1        0.0000
    160 C66         5.0550    9.5380   -6.2080 C.3       1 BCL1        0.0000
    161 H66R        4.1100    9.4650   -6.7920 H         1 BCL1        0.0000
    162 H66S        5.8450    9.0030   -6.7800 H         1 BCL1        0.0000
    163 C67         5.4480   11.0120   -6.0510 C.3       1 BCL1        0.0000
    164 H67R        6.1150   11.1290   -5.1670 H         1 BCL1        0.0000
    165 H67S        4.5320   11.6090   -5.8510 H         1 BCL1        0.0000
    166 C68         6.1700   11.5730   -7.2810 C.3       1 BCL1        0.0000
    167 H68R        6.0850   10.8570   -8.1290 H         1 BCL1        0.0000
    168 H68S        7.2520   11.6800   -7.0410 H         1 BCL1        0.0000
    169 C69         5.6140   12.9300   -7.7230 C.3       1 BCL1        0.0000
    170 H69R        5.6550   13.6300   -6.8580 H         1 BCL1        0.0000
    171 H69S        4.5470   12.8200   -8.0200 H         1 BCL1        0.0000
    172 C610        6.4100   13.5260   -8.8890 C.3       1 BCL1        0.0000
    173 H610        6.1760   12.9600   -9.8180 H         1 BCL1        0.0000
    174 H610        7.4990   13.4080   -8.6880 H         1 BCL1        0.0000
    175 C611        6.1180   15.0160   -9.0940 C.3       1 BCL1        0.0000
    176 H611        6.5010   15.5760   -8.2110 H         1 BCL1        0.0000
    177 H611        5.0180   15.1780   -9.1460 H         1 BCL1        0.0000
    178 C612        6.7670   15.5690  -10.3680 C.3       1 BCL1        0.0000
    179 H612        6.2380   15.1470  -11.2520 H         1 BCL1        0.0000
    180 H612        7.8280   15.2360  -10.4200 H         1 BCL1        0.0000
    181 C613        6.7280   17.1010  -10.4290 C.3       1 BCL1        0.0000
    182 H613        7.3880   17.5040   -9.6270 H         1 BCL1        0.0000
    183 H613        5.6910   17.4450  -10.2110 H         1 BCL1        0.0000
    184 C614        7.1690   17.6630  -11.7820 C.3       1 BCL1        0.0000
    185 H614        6.4710   17.3320  -12.5810 H         1 BCL1        0.0000
    186 H614        8.1900   17.3070  -12.0380 H         1 BCL1        0.0000
    187 H614        7.1770   18.7740  -11.7600 H         1 BCL1        0.0000
    188 C54        -0.1730    6.3630   -4.1680 C.3       1 BCL1        0.0000
    189 H54R       -0.2450    7.0970   -3.3370 H         1 BCL1        0.0000
    190 H54S       -1.2030    6.1200   -4.5090 H         1 BCL1        0.0000
    191 C55         0.6130    6.9900   -5.3320 C.3       1 BCL1        0.0000
    192 H55R        0.8820    6.1820   -6.0510 H         1 BCL1        0.0000
    193 H55S        1.5580    7.4160   -4.9280 H         1 BCL1        0.0000
    194 C56        -0.1250    8.0850   -6.1080 C.3       1 BCL1        0.0000
    195 H56R       -0.2550    8.9730   -5.4520 H         1 BCL1        0.0000
    196 H56S       -1.1410    7.7320   -6.3920 H         1 BCL1        0.0000
    197 C57         0.6370    8.4700   -7.3900 C.3       1 BCL1        0.0000
    198 H57R        0.1890    7.9260   -8.2510 H         1 BCL1        0.0000
    199 H57S        1.6980    8.1420   -7.3020 H         1 BCL1        0.0000
    200 C58         0.6410    9.9750   -7.6690 C.3       1 BCL1        0.0000
    201 H58R        1.3420   10.4540   -6.9480 H         1 BCL1        0.0000
    202 H58S       -0.3790   10.3860   -7.4930 H         1 BCL1        0.0000
    203 C59         1.0790   10.3370   -9.0930 C.3       1 BCL1        0.0000
    204 H59R        0.3010    9.9760   -9.8040 H         1 BCL1        0.0000
    205 H59S        2.0360    9.8220   -9.3310 H         1 BCL1        0.0000
    206 C510        1.2550   11.8510   -9.2740 C.3       1 BCL1        0.0000
    207 H510        1.9920   12.2300   -8.5340 H         1 BCL1        0.0000
    208 H510        0.2750   12.3350   -9.0760 H         1 BCL1        0.0000
    209 C511        1.7060   12.2560  -10.6780 C.3       1 BCL1        0.0000
    210 H511        1.1010   11.6830  -11.4170 H         1 BCL1        0.0000
    211 H511        2.7730   11.9750  -10.8210 H         1 BCL1        0.0000
    212 C512        1.5210   13.7550  -10.9640 C.3       1 BCL1        0.0000
    213 H512        2.1420   14.3600  -10.2660 H         1 BCL1        0.0000
    214 H512        0.4530   14.0250  -10.7940 H         1 BCL1        0.0000
    215 C513        1.8930   14.0760  -12.4160 C.3       1 BCL1        0.0000
    216 H513        1.3290   13.3850  -13.0840 H         1 BCL1        0.0000
    217 H513        2.9770   13.8730  -12.5610 H         1 BCL1        0.0000
    218 C514        1.5900   15.5140  -12.8570 C.3       1 BCL1        0.0000
    219 H514        2.1640   16.2300  -12.2280 H         1 BCL1        0.0000
    220 H514        0.5070   15.7260  -12.7130 H         1 BCL1        0.0000
    221 C515        1.9570   15.7110  -14.3340 C.3       1 BCL1        0.0000
    222 H515        1.3860   14.9690  -14.9380 H         1 BCL1        0.0000
    223 H515        3.0390   15.4770  -14.4600 H         1 BCL1        0.0000
    224 C516        1.6810   17.1130  -14.8800 C.3       1 BCL1        0.0000
    225 H516        2.2580   17.8750  -14.3130 H         1 BCL1        0.0000
    226 H516        0.6000   17.3570  -14.8040 H         1 BCL1        0.0000
    227 H516        1.9790   17.1730  -15.9500 H         1 BCL1        0.0000
    228 C33         2.9780    6.8570    1.1440 C.3       1 BCL1        0.0000
    229 H33R        3.9450    7.3760    1.3530 H         1 BCL1        0.0000
    230 O33         2.0820    7.2050    2.1820 O.3       1 BCL1        0.0000
    231 HO33        1.2040    6.8180    2.0850 H         1 BCL1        0.0000
    232 C34         2.4620    7.3820   -0.2120 C.3       1 BCL1        0.0000
    233 H34R        1.4710    6.9360   -0.4430 H         1 BCL1        0.0000
    234 H34S        3.1780    7.0200   -0.9800 H         1 BCL1        0.0000
    235 C35         2.3560    8.9210   -0.3390 C.3       1 BCL1        0.0000
    236 H35R        3.2280    9.4080    0.1510 H         1 BCL1        0.0000
    237 H35S        1.4420    9.2560    0.2000 H         1 BCL1        0.0000
    238 C36         2.2960    9.3620   -1.8140 C.3       1 BCL1        0.0000
    239 H36R        1.8210    8.5300   -2.3840 H         1 BCL1        0.0000
    240 H36S        3.3300    9.4880   -2.2000 H         1 BCL1        0.0000
    241 C37         1.4750   10.6260   -2.1150 C.3       1 BCL1        0.0000
    242 H37R        1.9780   11.5360   -1.7310 H         1 BCL1        0.0000
    243 H37S        0.5170   10.5270   -1.5530 H         1 BCL1        0.0000
    244 C38         1.1250   10.7340   -3.6160 C.3       1 BCL1        0.0000
    245 H38R        0.0160   10.8410   -3.6760 H         1 BCL1        0.0000
    246 H38S        1.3830    9.7760   -4.1230 H         1 BCL1        0.0000
    247 C39         1.7270   11.9130   -4.4120 C.3       1 BCL1        0.0000
    248 H39R        2.5420   11.5400   -5.0610 H         1 BCL1        0.0000
    249 H39S        2.1800   12.6460   -3.7140 H         1 BCL1        0.0000
    250 C310        0.6210   12.5840   -5.2610 C.3       1 BCL1        0.0000
    251 H310       -0.1480   12.8730   -4.5330 H         1 BCL1        0.0000
    252 H310        0.1410   11.8210   -5.8980 H         1 BCL1        0.0000
    253 C311        1.0020   13.7910   -6.1420 C.3       1 BCL1        0.0000
    254 H311        1.8690   13.4810   -6.7650 H         1 BCL1        0.0000
    255 H311        1.3490   14.6280   -5.5100 H         1 BCL1        0.0000
    256 C312       -0.1050   14.2700   -7.1240 C.3       1 BCL1        0.0000
    257 H312       -0.6190   13.3760   -7.5430 H         1 BCL1        0.0000
    258 H312        0.4080   14.8090   -7.9600 H         1 BCL1        0.0000
    259 C313       -1.1740   15.2450   -6.5850 C.3       1 BCL1        0.0000
    260 H313       -0.8850   15.6460   -5.6010 H         1 BCL1        0.0000
    261 H313       -2.1300   14.7020   -6.4360 H         1 BCL1        0.0000
    262 C314       -1.4450   16.4580   -7.4750 C.3       1 BCL1        0.0000
    263 H314       -1.8440   16.1440   -8.4630 H         1 BCL1        0.0000
    264 H314       -0.4870   17.0000   -7.6240 H         1 BCL1        0.0000
    265 H314       -2.1770   17.1410   -6.9840 H         1 BCL1        0.0000
    266 C11         4.0990    1.6240   -1.0760 C.2       1 BCL1        0.0000
    267 O11         3.8690    2.7970   -1.3530 O.2       1 BCL1        0.0000
    268 C12         5.0800    0.7890   -1.8770 C.3       1 BCL1        0.0000
    269 H12R        4.4650    0.0550   -2.4470 H         1 BCL1        0.0000
    270 H12S        5.7430    0.2210   -1.1960 H         1 BCL1        0.0000
    271 C13         5.9050    1.6330   -2.8690 C.3       1 BCL1        0.0000
    272 H13R        5.2830    2.4410   -3.3180 H         1 BCL1        0.0000
    273 O13         6.3160    0.7750   -3.9180 O.3       1 BCL1        0.0000
    274 HO13        6.6640    1.2310   -4.6880 H         1 BCL1        0.0000
    275 C14         7.1730    2.2260   -2.2220 C.3       1 BCL1        0.0000
    276 H14R        7.6910    1.3990   -1.6850 H         1 BCL1        0.0000
    277 H14S        6.8610    2.9770   -1.4640 H         1 BCL1        0.0000
    278 C15         8.2000    2.8670   -3.1820 C.3       1 BCL1        0.0000
    279 H15R        8.6080    2.1000   -3.8770 H         1 BCL1        0.0000
    280 H15S        9.0540    3.2260   -2.5620 H         1 BCL1        0.0000
    281 C16         7.6550    4.0550   -3.9860 C.3       1 BCL1        0.0000
    282 H16R        6.9590    4.6320   -3.3380 H         1 BCL1        0.0000
    283 H16S        7.0790    3.6810   -4.8620 H         1 BCL1        0.0000
    284 C17         8.7610    5.0100   -4.4630 C.3       1 BCL1        0.0000
    285 H17R        9.5150    4.4450   -5.0530 H         1 BCL1        0.0000
    286 H17S        9.2740    5.4290   -3.5670 H         1 BCL1        0.0000
    287 C18         8.2170    6.1720   -5.3080 C.3       1 BCL1        0.0000
    288 H18R        7.4830    6.7360   -4.6880 H         1 BCL1        0.0000
    289 H18S        7.6770    5.7690   -6.1930 H         1 BCL1        0.0000
    290 C19         9.3090    7.1480   -5.7790 C.3       1 BCL1        0.0000
    291 H19R       10.0120    6.6340   -6.4710 H         1 BCL1        0.0000
    292 H19S        9.8890    7.4720   -4.8850 H         1 BCL1        0.0000
    293 C110        8.7240    8.3970   -6.4570 C.3       1 BCL1        0.0000
    294 H110        7.8770    8.7450   -5.8220 H         1 BCL1        0.0000
    295 H110        8.3080    8.1430   -7.4560 H         1 BCL1        0.0000
    296 C111        9.7140    9.5670   -6.5670 C.3       1 BCL1        0.0000
    297 H111       10.3850    9.5690   -5.6790 H         1 BCL1        0.0000
    298 H111        9.1350   10.5180   -6.5420 H         1 BCL1        0.0000
    299 C112       10.5540    9.5790   -7.8520 C.3       1 BCL1        0.0000
    300 H112        9.8740    9.6440   -8.7310 H         1 BCL1        0.0000
    301 H112       11.1300    8.6310   -7.9350 H         1 BCL1        0.0000
    302 C113       11.5220   10.7720   -7.8760 C.3       1 BCL1        0.0000
    303 H113       12.2380   10.6700   -7.0290 H         1 BCL1        0.0000
    304 H113       10.9430   11.7100   -7.7150 H         1 BCL1        0.0000
    305 C114       12.3120   10.9050   -9.1850 C.3       1 BCL1        0.0000
    306 H114       11.6010   11.0370  -10.0310 H         1 BCL1        0.0000
    307 H114       12.8840    9.9680   -9.3660 H         1 BCL1        0.0000
    308 C115       13.2850   12.0920   -9.1570 C.3       1 BCL1        0.0000
    309 H115       13.9880   11.9560   -8.3030 H         1 BCL1        0.0000
    310 H115       12.7060   13.0250   -8.9640 H         1 BCL1        0.0000
    311 C116       14.0900   12.2600  -10.4470 C.3       1 BCL1        0.0000
    312 H116       13.4120   12.4310  -11.3100 H         1 BCL1        0.0000
    313 H116       14.6940   11.3500  -10.6500 H         1 BCL1        0.0000
    314 H116       14.7800   13.1280  -10.3660 H         1 BCL1        0.0000
@<TRIPOS>BOND
     1  227  224 1 
     2  222  221 1 
     3  224  226 1 
     4  224  221 1 
     5  224  225 1 
     6  223  221 1 
     7  221  218 1 
     8  216  215 1 
     9  218  220 1 
    10  218  215 1 
    11  218  219 1 
    12  185  184 1 
    13  217  215 1 
    14  215  212 1 
    15  186  184 1 
    16  184  187 1 
    17  184  181 1 
    18  210  209 1 
    19  312  311 1 
    20  179  178 1 
    21  212  214 1 
    22  212  209 1 
    23  212  213 1 
    24  211  209 1 
    25  209  206 1 
    26  313  311 1 
    27  311  314 1 
    28  311  308 1 
    29  181  178 1 
    30  181  183 1 
    31  181  182 1 
    32  180  178 1 
    33  178  175 1 
    34  306  305 1 
    35  173  172 1 
    36  204  203 1 
    37  307  305 1 
    38  205  203 1 
    39  206  203 1 
    40  206  208 1 
    41  206  207 1 
    42  305  308 1 
    43  305  302 1 
    44  308  310 1 
    45  308  309 1 
    46  177  175 1 
    47  175  172 1 
    48  175  176 1 
    49  203  200 1 
    50  172  174 1 
    51  172  169 1 
    52  300  299 1 
    53  263  262 1 
    54  198  197 1 
    55  167  166 1 
    56  171  169 1 
    57  258  256 1 
    58  301  299 1 
    59  302  299 1 
    60  302  304 1 
    61  302  303 1 
    62  299  296 1 
    63  169  166 1 
    64  169  170 1 
    65  200  202 1 
    66  200  197 1 
    67  200  201 1 
    68  264  262 1 
    69  257  256 1 
    70  262  265 1 
    71  262  259 1 
    72  295  293 1 
    73  197  199 1 
    74  197  194 1 
    75  166  168 1 
    76  166  163 1 
    77  256  259 1 
    78  256  253 1 
    79  161  160 1 
    80  162  160 1 
    81  254  253 1 
    82  259  261 1 
    83  259  260 1 
    84  296  298 1 
    85  296  293 1 
    86  296  297 1 
    87  291  290 1 
    88  293  294 1 
    89  293  290 1 
    90  196  194 1 
    91  160  163 1 
    92  160  157 1 
    93  289  287 1 
    94  136  134 1 
    95  253  255 1 
    96  253  250 1 
    97  194  195 1 
    98  194  191 1 
    99  163  165 1 
   100  163  164 1 
   101  192  191 1 
   102  252  250 1 
   103  103  102 1 
   104  290  287 1 
   105  290  292 1 
   106  102  100 1 
   107  137  134 1 
   108  155  154 1 
   109  156  154 1 
   110  109  107 1 
   111  135  134 1 
   112  134  131 1 
   113  191  193 1 
   114  191  188 1 
   115  287  288 1 
   116  287  284 1 
   117  250  251 1 
   118  250  247 1 
   119  147  146 2 
   120  248  247 1 
   121  285  284 1 
   122  105  104 1 
   123  154  157 1 
   124  154  151 1 
   125  283  281 1 
   126  157  158 1 
   127  157  159 1 
   128  115  113 1 
   129   49   47 1 
   130  274  273 1 
   131  190  188 1 
   132  130  128 1 
   133  284  281 1 
   134  284  286 1 
   135  144  143 1 
   136   48   47 1 
   137  247  249 1 
   138  247  244 1 
   139  100  104 1 
   140  100   47 1 
   141  100  101 1 
   142  107  104 1 
   143  107  108 1 
   144  107  110 1 
   145  149  148 1 
   146  114  113 1 
   147  104  106 1 
   148   47   45 1 
   149  188  143 1 
   150  188  189 1 
   151  121  119 1 
   152  246  244 1 
   153  146  148 1 
   154  146  145 1 
   155  132  131 1 
   156  281  282 1 
   157  281  278 1 
   158  131  128 1 
   159  131  133 1 
   160  113  110 1 
   161  113  116 1 
   162  273  271 1 
   163  279  278 1 
   164  111  110 1 
   165   26   24 1 
   166  245  244 1 
   167  143  145 1 
   168  143  140 1 
   169  139  138 2 
   170   25   24 1 
   171  244  241 1 
   172  110  112 1 
   173  148  151 1 
   174  148  150 1 
   175  151  153 1 
   176  151  152 1 
   177  128  129 1 
   178  128  125 1 
   179  272  271 1 
   180  126  125 1 
   181  278  280 1 
   182  278  275 1 
   183  120  119 1 
   184  119  116 1 
   185  119  122 1 
   186   39   38 1 
   187   37   36 1 
   188   24   36 1 
   189   24   27 1 
   190  271  275 1 
   191  271  268 1 
   192  116  117 1 
   193  116  118 1 
   194   45   43 1 
   195   45   46 2 
   196  125  122 1 
   197  125  127 1 
   198   20   19 2 
   199   43   42 1 
   200  138  140 1 
   201  138   52 am
   202   21   19 1 
   203  269  268 1 
   204  239  238 1 
   205  140  141 1 
   206  140  142 1 
   207   36   38 1 
   208   36   32 1 
   209  275  276 1 
   210  275  277 1 
   211  240  238 1 
   212   27   22 1 
   213   38   40 1 
   214   38   41 1 
   215  122  124 1 
   216  122  123 1 
   217   51   50 1 
   218  241  238 1 
   219  241  242 1 
   220  241  243 1 
   221  268  270 1 
   222  268  266 1 
   223  238  235 1 
   224   19   17 1 
   225   19   18 1 
   226   52   50 1 
   227   52   53 1 
   228   16   15 1 
   229  267  266 2 
   230   50   42 1 
   231   50    9 1 
   232   42   15 1 
   233   42   44 1 
   234   33   32 1 
   235  266   98 am
   236   32   34 1 
   237   32   28 1 
   238  234  232 1 
   239   62   61 1 
   240   97   96 1 
   241   22   18 1 
   242   22   23 1 
   243   22   28 1 
   244   15   17 1 
   245   15    6 1 
   246   65   67 2 
   247  233  232 1 
   248  235  232 1 
   249  235  236 1 
   250  235  237 1 
   251   34   35 1 
   252  232  228 1 
   253   11    9 1 
   254   11   12 1 
   255   28   29 1 
   256   28   30 1 
   257   98   96 1 
   258   98   99 1 
   259    9    7 1 
   260    9   10 1 
   261   96   61 1 
   262   96   88 1 
   263   60   61 1 
   264   60   58 1 
   265   61   63 1 
   266   55   54 1 
   267   94   93 1 
   268    7    6 1 
   269    5    4 1 
   270    6    4 1 
   271    6    8 1 
   272   13   12 1 
   273   12   58 1 
   274   12   14 1 
   275   67   63 1 
   276   67   66 1 
   277   67   64 1 
   278   91   92 2 
   279   91   90 1 
   280   91   93 1 
   281  228   93 1 
   282  228  229 1 
   283  228  230 1 
   284   90   88 1 
   285   58   54 1 
   286   58   59 1 
   287   54   88 1 
   288   54   56 1 
   289   93   95 1 
   290   30   31 1 
   291   88   89 1 
   292    4    1 1 
   293    4    2 1 
   294   64   68 1 
   295    3    2 1 
   296  231  230 1 
   297   57   56 1 
   298   71   70 1 
   299   77   76 1 
   300   68   69 1 
   301   68   73 1 
   302   68   74 1 
   303   73   70 1 
   304   70   72 1 
   305   70   82 1 
   306   79   78 1 
   307   76   74 1 
   308   74   78 1 
   309   74   75 1 
   310   78   82 1 
   311   78   80 1 
   312   83   82 1 
   313   82   84 1 
   314   81   80 1 
   315   86   84 1 
   316   84   85 1 
   317   84   87 1 
