@<TRIPOS>MOLECULE
C:\Users\Praveer\PycharmProjects\pdb_to_mol2_converter\data\pdb\bclipb.pdb
  294   296     0     0     0
SMALL
GASTEIGER

@<TRIPOS>ATOM
      1 HB6S       -7.9460    2.4890    0.9810 H         1 BCL1        0.0000
      2 OB6        -6.8150    0.9660    1.8560 O.3       1 BCL1        0.0000
      3 HOB6       -6.0840    0.4030    1.5830 H         1 BCL1        0.0000
      4 CB6        -7.1270    1.7790    0.7190 C.3       1 BCL1        0.0000
      5 HB6R       -7.5040    1.1400   -0.1120 H         1 BCL1        0.0000
      6 CB5        -5.9100    2.5540    0.2530 C.3       1 BCL1        0.0000
      7 OB5        -4.7770    1.6780    0.1050 O.3       1 BCL1        0.0000
      8 HB5        -5.6890    3.3120    1.0430 H         1 BCL1        0.0000
      9 CB1        -3.5840    2.4400   -0.0980 C.3       1 BCL1        0.0000
     10 HB1        -3.4460    3.1570    0.7430 H         1 BCL1        0.0000
     11 OA6        -2.4470    1.6290   -0.1940 O.3       1 BCL1        0.0000
     12 CA6        -2.1820    0.9150    1.0110 C.3       1 BCL1        0.0000
     13 HA6R       -2.6170   -0.1060    0.9310 H         1 BCL1        0.0000
     14 HA6S       -2.6370    1.4230    1.8900 H         1 BCL1        0.0000
     15 CB4        -6.0990    3.2570   -1.0760 C.3       1 BCL1        0.0000
     16 HB4        -6.2590    2.4750   -1.8600 H         1 BCL1        0.0000
     17 OB4        -7.2090    4.1290   -0.9120 O.3       1 BCL1        0.0000
     18 PB         -8.4900    4.1460   -1.9560 P.3       1 BCL1        0.0000
     19 OPB4       -8.5050    5.5710   -2.5010 O.3       1 BCL1        0.0000
     20 OPB3       -9.6840    3.7940   -1.0780 O.3       1 BCL1        0.0000
     21 OPB2       -8.1990    3.1080   -3.0280 O.2       1 BCL1        0.0000
     22 CB3        -4.8720    4.0670   -1.4110 C.3       1 BCL1        0.0000
     23 OB3        -5.0000    4.6460   -2.7090 O.3       1 BCL1        0.0000
     24 HB3        -4.7260    4.8270   -0.6000 H         1 BCL1        0.0000
     25 C71        -5.4760    5.9030   -2.7140 C.2       1 BCL1        0.0000
     26 O71        -5.1870    6.7260   -1.8660 O.2       1 BCL1        0.0000
     27 C72        -5.7250    6.2590   -4.1750 C.3       1 BCL1        0.0000
     28 H72R       -6.7410    5.8720   -4.4120 H         1 BCL1        0.0000
     29 H72S       -4.9910    5.7470   -4.8260 H         1 BCL1        0.0000
     30 CB2        -3.6370    3.2060   -1.4000 C.3       1 BCL1        0.0000
     31 HB2        -3.7300    2.4600   -2.2320 H         1 BCL1        0.0000
     32 NB2        -2.4320    4.0110   -1.5670 N.am      1 BCL1        0.0000
     33 HNB2       -2.2120    4.6050   -0.8060 H         1 BCL1        0.0000
     34 CA4         0.0040    2.2030    1.1940 C.3       1 BCL1        0.0000
     35 HA4        -0.2930    2.7370    0.2610 H         1 BCL1        0.0000
     36 OA4        -0.4600    2.9480    2.3140 O.3       1 BCL1        0.0000
     37 HOA4       -0.2520    3.8790    2.1240 H         1 BCL1        0.0000
     38 CA5        -0.6810    0.8400    1.1720 C.3       1 BCL1        0.0000
     39 HA5        -0.4630    0.3070    2.1270 H         1 BCL1        0.0000
     40 OA5        -0.2080    0.0440    0.0800 O.3       1 BCL1        0.0000
     41 CA1         1.1970   -0.1830    0.1040 C.3       1 BCL1        0.0000
     42 HA1         1.3760   -0.6780   -0.8870 H         1 BCL1        0.0000
     43 OA1         1.4820   -1.0500    1.1980 O.3       1 BCL1        0.0000
     44 OC1         2.2220   -3.4260    1.8730 O.3       1 BCL1        0.0000
     45 OPA3        2.8500   -2.5000   -0.4390 O.2       1 BCL1        0.0000
     46 OPA4        3.9390   -1.4760    1.6620 O.3       1 BCL1        0.0000
     47 PA          2.7150   -2.1210    1.0230 P.3       1 BCL1        0.0000
     48 CC1         2.2350   -3.7000    3.2500 C.3       1 BCL1        0.0000
     49 HC1         1.3560   -4.3790    3.3920 H         1 BCL1        0.0000
     50 CC7         4.5940   -3.8010    3.6750 C.3       1 BCL1        0.0000
     51 HC71        4.8440   -3.3120    2.7140 H         1 BCL1        0.0000
     52 HC72        5.4210   -4.5310    3.8320 H         1 BCL1        0.0000
     53 OC7         3.3660   -4.5330    3.5570 O.3       1 BCL1        0.0000
     54 CC3         2.0720   -2.6410    4.3370 C.3       1 BCL1        0.0000
     55 HC3         1.8250   -3.2350    5.2580 H         1 BCL1        0.0000
     56 OC3         0.9260   -1.8170    4.1480 O.3       1 BCL1        0.0000
     57 HOC3        0.7810   -1.6600    3.2030 H         1 BCL1        0.0000
     58 CC5         3.3320   -1.8710    4.6940 C.3       1 BCL1        0.0000
     59 HC5         3.5250   -1.1250    3.8950 H         1 BCL1        0.0000
     60 OC5         3.1530   -1.1210    5.8980 O.3       1 BCL1        0.0000
     61 HOC5        2.3560   -0.5780    5.7910 H         1 BCL1        0.0000
     62 CC6         4.5390   -2.7990    4.8070 C.3       1 BCL1        0.0000
     63 HC6         5.4500   -2.1530    4.7520 H         1 BCL1        0.0000
     64 NC6         4.6000   -3.4960    6.0750 N.4       1 BCL1        0.0000
     65 HNC1        5.5570   -3.8450    6.2780 H         1 BCL1        0.0000
     66 HNC3        3.9300   -4.2940    6.0390 H         1 BCL1        0.0000
     67 HNC5        4.2940   -2.8140    6.8070 H         1 BCL1        0.0000
     68 CA3         1.5230    2.0620    1.2000 C.3       1 BCL1        0.0000
     69 HA3         1.7850    1.5260    2.1460 H         1 BCL1        0.0000
     70 OA3         2.3700    3.2170    1.1520 O.3       1 BCL1        0.0000
     71 C31         1.9940    4.4750    1.0640 C.2       1 BCL1        0.0000
     72 O31         0.8520    4.9060    1.1010 O.2       1 BCL1        0.0000
     73 C32         3.2540    5.3330    1.1810 C.3       1 BCL1        0.0000
     74 H32R        3.9290    5.0560    0.3450 H         1 BCL1        0.0000
     75 H32S        3.7560    5.0750    2.1360 H         1 BCL1        0.0000
     76 CA2         1.9440    1.1440    0.0630 C.3       1 BCL1        0.0000
     77 HA2         1.5570    1.6440   -0.8660 H         1 BCL1        0.0000
     78 NA2         3.3780    0.9510   -0.1330 N.am      1 BCL1        0.0000
     79 HNA2        3.7420    0.0890    0.2170 H         1 BCL1        0.0000
     80 C73        -5.6640    7.7800   -4.3640 C.3       1 BCL1        0.0000
     81 H73R       -6.3410    8.2730   -3.6250 H         1 BCL1        0.0000
     82 O73        -6.1620    8.0420   -5.6640 O.3       1 BCL1        0.0000
     83 HO73       -7.0520    7.6980   -5.7970 H         1 BCL1        0.0000
     84 C74        -4.2420    8.3890   -4.2420 C.3       1 BCL1        0.0000
     85 H74R       -3.5890    7.9480   -5.0290 H         1 BCL1        0.0000
     86 H74S       -3.8260    8.1040   -3.2510 H         1 BCL1        0.0000
     87 C75        -4.2140    9.9340   -4.3440 C.3       1 BCL1        0.0000
     88 H75R       -5.1490   10.3350   -3.8930 H         1 BCL1        0.0000
     89 H75S       -4.2190   10.2230   -5.4160 H         1 BCL1        0.0000
     90 C76        -3.0190   10.5830   -3.6140 C.3       1 BCL1        0.0000
     91 H76R       -2.1090    9.9820   -3.8140 H         1 BCL1        0.0000
     92 H76S       -3.2270   10.5100   -2.5230 H         1 BCL1        0.0000
     93 C77        -2.7420   12.0600   -3.9900 C.3       1 BCL1        0.0000
     94 H77R       -3.6910   12.5140   -4.3360 H         1 BCL1        0.0000
     95 H77S       -2.0370   12.0750   -4.8500 H         1 BCL1        0.0000
     96 C78        -2.1820   12.9160   -2.8260 C.3       1 BCL1        0.0000
     97 H78R       -1.3280   12.3600   -2.3890 H         1 BCL1        0.0000
     98 H78S       -2.9570   13.0060   -2.0330 H         1 BCL1        0.0000
     99 C79        -1.6880   14.3430   -3.1900 C.3       1 BCL1        0.0000
    100 H79R       -2.5760   15.0030   -3.2030 H         1 BCL1        0.0000
    101 H79S       -1.3200   14.3620   -4.2250 H         1 BCL1        0.0000
    102 C710       -0.6150   14.9190   -2.2210 C.3       1 BCL1        0.0000
    103 H710       -0.4650   14.1360   -1.4400 H         1 BCL1        0.0000
    104 H710       -1.0030   15.8110   -1.6860 H         1 BCL1        0.0000
    105 C711        0.8130   15.1980   -2.7760 C.3       1 BCL1        0.0000
    106 H711        1.1360   14.3330   -3.3780 H         1 BCL1        0.0000
    107 H711        1.5100   15.2080   -1.9050 H         1 BCL1        0.0000
    108 C712        1.0800   16.5080   -3.5690 C.3       1 BCL1        0.0000
    109 H712        0.7950   17.4000   -2.9790 H         1 BCL1        0.0000
    110 H712        0.4860   16.5710   -4.4940 H         1 BCL1        0.0000
    111 C713        2.5550   16.6550   -4.0120 C.3       1 BCL1        0.0000
    112 H713        2.9960   15.6370   -4.0450 H         1 BCL1        0.0000
    113 H713        3.1100   17.2250   -3.2360 H         1 BCL1        0.0000
    114 C714        2.7940   17.2990   -5.3900 C.3       1 BCL1        0.0000
    115 H714        2.3380   18.3090   -5.4350 H         1 BCL1        0.0000
    116 H714        2.3620   16.6850   -6.2090 H         1 BCL1        0.0000
    117 H714        3.8860   17.3950   -5.5890 H         1 BCL1        0.0000
    118 C51        -1.5550    3.9150   -2.5740 C.2       1 BCL1        0.0000
    119 O51        -1.7740    3.3120   -3.6160 O.2       1 BCL1        0.0000
    120 C52        -0.2090    4.5540   -2.3110 C.3       1 BCL1        0.0000
    121 H52R        0.4430    3.7700   -1.8670 H         1 BCL1        0.0000
    122 H52S       -0.3140    5.3830   -1.5850 H         1 BCL1        0.0000
    123 C53         0.4460    5.0620   -3.6040 C.3       1 BCL1        0.0000
    124 H53R        0.3530    4.2730   -4.3920 H         1 BCL1        0.0000
    125 O53         1.8090    5.3440   -3.2530 O.3       1 BCL1        0.0000
    126 C61         2.7260    4.8250   -4.0610 C.2       1 BCL1        0.0000
    127 O61         2.5120    4.1990   -5.0850 O.2       1 BCL1        0.0000
    128 C62         4.1200    5.2170   -3.5880 C.3       1 BCL1        0.0000
    129 H62R        4.8500    4.7170   -4.2540 H         1 BCL1        0.0000
    130 H62S        4.2430    4.8190   -2.5600 H         1 BCL1        0.0000
    131 C63         4.3560    6.7390   -3.5700 C.3       1 BCL1        0.0000
    132 H63R        5.2860    6.9360   -2.9870 H         1 BCL1        0.0000
    133 H63S        3.5230    7.2530   -3.0470 H         1 BCL1        0.0000
    134 C64         4.5280    7.3600   -4.9590 C.3       1 BCL1        0.0000
    135 H64R        3.5890    7.2570   -5.5450 H         1 BCL1        0.0000
    136 H64S        5.3260    6.8200   -5.5140 H         1 BCL1        0.0000
    137 C65         4.8980    8.8420   -4.8470 C.3       1 BCL1        0.0000
    138 H65R        5.8590    8.9280   -4.2890 H         1 BCL1        0.0000
    139 H65S        4.1180    9.3750   -4.2600 H         1 BCL1        0.0000
    140 C66         5.0520    9.5310   -6.2040 C.3       1 BCL1        0.0000
    141 H66R        4.1020    9.4570   -6.7800 H         1 BCL1        0.0000
    142 H66S        5.8390    8.9990   -6.7840 H         1 BCL1        0.0000
    143 C67         5.4420   11.0060   -6.0480 C.3       1 BCL1        0.0000
    144 H67R        6.1020   11.1260   -5.1580 H         1 BCL1        0.0000
    145 H67S        4.5250   11.6030   -5.8550 H         1 BCL1        0.0000
    146 C68         6.1680   11.5710   -7.2730 C.3       1 BCL1        0.0000
    147 H68R        6.0970   10.8520   -8.1200 H         1 BCL1        0.0000
    148 H68S        7.2470   11.6870   -7.0230 H         1 BCL1        0.0000
    149 C69         5.6090   12.9240   -7.7240 C.3       1 BCL1        0.0000
    150 H69R        5.6380   13.6280   -6.8620 H         1 BCL1        0.0000
    151 H69S        4.5450   12.8080   -8.0310 H         1 BCL1        0.0000
    152 C610        6.4110   13.5210   -8.8860 C.3       1 BCL1        0.0000
    153 H610        6.1820   12.9560   -9.8170 H         1 BCL1        0.0000
    154 H610        7.4990   13.4040   -8.6790 H         1 BCL1        0.0000
    155 C611        6.1200   15.0110   -9.0900 C.3       1 BCL1        0.0000
    156 H611        6.5040   15.5700   -8.2070 H         1 BCL1        0.0000
    157 H611        5.0200   15.1740   -9.1420 H         1 BCL1        0.0000
    158 C612        6.7680   15.5660  -10.3650 C.3       1 BCL1        0.0000
    159 H612        6.2370   15.1450  -11.2480 H         1 BCL1        0.0000
    160 H612        7.8290   15.2300  -10.4190 H         1 BCL1        0.0000
    161 C613        6.7330   17.0970  -10.4240 C.3       1 BCL1        0.0000
    162 H613        7.3990   17.4980   -9.6260 H         1 BCL1        0.0000
    163 H613        5.6990   17.4430  -10.2000 H         1 BCL1        0.0000
    164 C614        7.1670   17.6600  -11.7800 C.3       1 BCL1        0.0000
    165 H614        6.4630   17.3320  -12.5750 H         1 BCL1        0.0000
    166 H614        8.1850   17.3020  -12.0430 H         1 BCL1        0.0000
    167 H614        7.1770   18.7710  -11.7560 H         1 BCL1        0.0000
    168 C54        -0.2040    6.3640   -4.1380 C.3       1 BCL1        0.0000
    169 H54R       -0.2840    7.0970   -3.3070 H         1 BCL1        0.0000
    170 H54S       -1.2320    6.1210   -4.4860 H         1 BCL1        0.0000
    171 C55         0.5910    6.9970   -5.2960 C.3       1 BCL1        0.0000
    172 H55R        0.8570    6.1950   -6.0220 H         1 BCL1        0.0000
    173 H55S        1.5370    7.4120   -4.8840 H         1 BCL1        0.0000
    174 C56        -0.1380    8.1030   -6.0700 C.3       1 BCL1        0.0000
    175 H56R       -0.2880    8.9840   -5.4100 H         1 BCL1        0.0000
    176 H56S       -1.1470    7.7450   -6.3730 H         1 BCL1        0.0000
    177 C57         0.6390    8.4990   -7.3410 C.3       1 BCL1        0.0000
    178 H57R        0.1900    7.9670   -8.2090 H         1 BCL1        0.0000
    179 H57S        1.6970    8.1610   -7.2510 H         1 BCL1        0.0000
    180 C58         0.6530   10.0060   -7.6130 C.3       1 BCL1        0.0000
    181 H58R        1.3640   10.4820   -6.9010 H         1 BCL1        0.0000
    182 H58S       -0.3640   10.4190   -7.4240 H         1 BCL1        0.0000
    183 C59         1.0700   10.3670   -9.0440 C.3       1 BCL1        0.0000
    184 H59R        0.2790   10.0120   -9.7410 H         1 BCL1        0.0000
    185 H59S        2.0160    9.8410   -9.3020 H         1 BCL1        0.0000
    186 C510        1.2590   11.8800   -9.2340 C.3       1 BCL1        0.0000
    187 H510        2.0260   12.2430   -8.5190 H         1 BCL1        0.0000
    188 H510        0.2960   12.3870   -9.0080 H         1 BCL1        0.0000
    189 C511        1.6910   12.2710  -10.6500 C.3       1 BCL1        0.0000
    190 H511        1.0770   11.6920  -11.3750 H         1 BCL1        0.0000
    191 H511        2.7560   11.9830  -10.8010 H         1 BCL1        0.0000
    192 C512        1.5110   13.7680  -10.9500 C.3       1 BCL1        0.0000
    193 H512        2.1360   14.3730  -10.2560 H         1 BCL1        0.0000
    194 H512        0.4450   14.0460  -10.7790 H         1 BCL1        0.0000
    195 C513        1.8830   14.0790  -12.4050 C.3       1 BCL1        0.0000
    196 H513        1.3170   13.3860  -13.0680 H         1 BCL1        0.0000
    197 H513        2.9670   13.8730  -12.5500 H         1 BCL1        0.0000
    198 C514        1.5840   15.5150  -12.8560 C.3       1 BCL1        0.0000
    199 H514        2.1580   16.2340  -12.2310 H         1 BCL1        0.0000
    200 H514        0.5020   15.7310  -12.7170 H         1 BCL1        0.0000
    201 C515        1.9550   15.7060  -14.3340 C.3       1 BCL1        0.0000
    202 H515        1.3850   14.9620  -14.9370 H         1 BCL1        0.0000
    203 H515        3.0370   15.4690  -14.4570 H         1 BCL1        0.0000
    204 C516        1.6840   17.1060  -14.8850 C.3       1 BCL1        0.0000
    205 H516        2.2600   17.8680  -14.3190 H         1 BCL1        0.0000
    206 H516        0.6020   17.3520  -14.8130 H         1 BCL1        0.0000
    207 H516        1.9840   17.1620  -15.9550 H         1 BCL1        0.0000
    208 C33         2.9840    6.8550    1.1510 C.3       1 BCL1        0.0000
    209 H33R        3.9540    7.3730    1.3520 H         1 BCL1        0.0000
    210 O33         2.0970    7.2060    2.1960 O.3       1 BCL1        0.0000
    211 HO33        1.2240    6.8060    2.1120 H         1 BCL1        0.0000
    212 C34         2.4580    7.3810   -0.2000 C.3       1 BCL1        0.0000
    213 H34R        1.4660    6.9340   -0.4240 H         1 BCL1        0.0000
    214 H34S        3.1670    7.0190   -0.9750 H         1 BCL1        0.0000
    215 C35         2.3510    8.9200   -0.3270 C.3       1 BCL1        0.0000
    216 H35R        3.2260    9.4080    0.1550 H         1 BCL1        0.0000
    217 H35S        1.4400    9.2560    0.2160 H         1 BCL1        0.0000
    218 C36         2.2820    9.3570   -1.8010 C.3       1 BCL1        0.0000
    219 H36R        1.8230    8.5140   -2.3690 H         1 BCL1        0.0000
    220 H36S        3.3120    9.5050   -2.1900 H         1 BCL1        0.0000
    221 C37         1.4300   10.5960   -2.1110 C.3       1 BCL1        0.0000
    222 H37R        1.8820   11.5240   -1.7060 H         1 BCL1        0.0000
    223 H37S        0.4530   10.4550   -1.5900 H         1 BCL1        0.0000
    224 C38         1.1330   10.6930   -3.6210 C.3       1 BCL1        0.0000
    225 H38R        0.0310   10.8170   -3.7230 H         1 BCL1        0.0000
    226 H38S        1.3790    9.7220   -4.1060 H         1 BCL1        0.0000
    227 C39         1.7650   11.8590   -4.4120 C.3       1 BCL1        0.0000
    228 H39R        2.5750   11.4650   -5.0540 H         1 BCL1        0.0000
    229 H39S        2.2280   12.5830   -3.7090 H         1 BCL1        0.0000
    230 C310        0.6560   12.5530   -5.2430 C.3       1 BCL1        0.0000
    231 H310       -0.0690   12.8470   -4.4690 H         1 BCL1        0.0000
    232 H310        0.1160   11.8050   -5.8510 H         1 BCL1        0.0000
    233 C311        1.0190   13.7610   -6.1440 C.3       1 BCL1        0.0000
    234 H311        1.8420   13.4490   -6.8300 H         1 BCL1        0.0000
    235 H311        1.4270   14.5850   -5.5320 H         1 BCL1        0.0000
    236 C312       -0.1250   14.2850   -7.0680 C.3       1 BCL1        0.0000
    237 H312       -0.6720   13.4130   -7.4950 H         1 BCL1        0.0000
    238 H312        0.3740   14.8470   -7.8960 H         1 BCL1        0.0000
    239 C313       -1.1800   15.2790   -6.5270 C.3       1 BCL1        0.0000
    240 H313       -0.8840   15.7150   -5.5600 H         1 BCL1        0.0000
    241 H313       -2.1320   14.7400   -6.3440 H         1 BCL1        0.0000
    242 C314       -1.4690   16.4620   -7.4550 C.3       1 BCL1        0.0000
    243 H314       -1.8480   16.0970   -8.4350 H         1 BCL1        0.0000
    244 H314       -0.5210   17.0190   -7.6070 H         1 BCL1        0.0000
    245 H314       -2.2140   17.1580   -6.9990 H         1 BCL1        0.0000
    246 C11         4.0710    1.6230   -1.0700 C.2       1 BCL1        0.0000
    247 O11         3.8420    2.7940   -1.3380 O.2       1 BCL1        0.0000
    248 C12         5.0620    0.7940   -1.8710 C.3       1 BCL1        0.0000
    249 H12R        4.4510    0.0610   -2.4450 H         1 BCL1        0.0000
    250 H12S        5.7250    0.2280   -1.1910 H         1 BCL1        0.0000
    251 C13         5.8870    1.6430   -2.8630 C.3       1 BCL1        0.0000
    252 H13R        5.2670    2.4560   -3.3020 H         1 BCL1        0.0000
    253 O13         6.2890    0.7890   -3.9190 O.3       1 BCL1        0.0000
    254 HO13        6.6430    1.2470   -4.6850 H         1 BCL1        0.0000
    255 C14         7.1640    2.2230   -2.2220 C.3       1 BCL1        0.0000
    256 H14R        7.6820    1.3870   -1.6970 H         1 BCL1        0.0000
    257 H14S        6.8640    2.9690   -1.4550 H         1 BCL1        0.0000
    258 C15         8.1910    2.8630   -3.1850 C.3       1 BCL1        0.0000
    259 H15R        8.5970    2.0950   -3.8800 H         1 BCL1        0.0000
    260 H15S        9.0450    3.2210   -2.5670 H         1 BCL1        0.0000
    261 C16         7.6470    4.0510   -3.9910 C.3       1 BCL1        0.0000
    262 H16R        6.9400    4.6220   -3.3500 H         1 BCL1        0.0000
    263 H16S        7.0830    3.6760   -4.8730 H         1 BCL1        0.0000
    264 C17         8.7520    5.0150   -4.4560 C.3       1 BCL1        0.0000
    265 H17R        9.5180    4.4580   -5.0380 H         1 BCL1        0.0000
    266 H17S        9.2540    5.4380   -3.5550 H         1 BCL1        0.0000
    267 C18         8.2100    6.1730   -5.3070 C.3       1 BCL1        0.0000
    268 H18R        7.4740    6.7380   -4.6910 H         1 BCL1        0.0000
    269 H18S        7.6720    5.7650   -6.1910 H         1 BCL1        0.0000
    270 C19         9.3040    7.1450   -5.7780 C.3       1 BCL1        0.0000
    271 H19R       10.0070    6.6270   -6.4660 H         1 BCL1        0.0000
    272 H19S        9.8830    7.4700   -4.8840 H         1 BCL1        0.0000
    273 C110        8.7240    8.3930   -6.4620 C.3       1 BCL1        0.0000
    274 H110        7.8760    8.7430   -5.8290 H         1 BCL1        0.0000
    275 H110        8.3110    8.1390   -7.4620 H         1 BCL1        0.0000
    276 C111        9.7150    9.5630   -6.5700 C.3       1 BCL1        0.0000
    277 H111       10.3860    9.5640   -5.6830 H         1 BCL1        0.0000
    278 H111        9.1360   10.5140   -6.5430 H         1 BCL1        0.0000
    279 C112       10.5540    9.5800   -7.8560 C.3       1 BCL1        0.0000
    280 H112        9.8720    9.6490   -8.7340 H         1 BCL1        0.0000
    281 H112       11.1290    8.6320   -7.9450 H         1 BCL1        0.0000
    282 C113       11.5220   10.7730   -7.8770 C.3       1 BCL1        0.0000
    283 H113       12.2370   10.6690   -7.0300 H         1 BCL1        0.0000
    284 H113       10.9440   11.7110   -7.7140 H         1 BCL1        0.0000
    285 C114       12.3120   10.9080   -9.1860 C.3       1 BCL1        0.0000
    286 H114       11.6010   11.0420  -10.0320 H         1 BCL1        0.0000
    287 H114       12.8840    9.9710   -9.3680 H         1 BCL1        0.0000
    288 C115       13.2850   12.0940   -9.1560 C.3       1 BCL1        0.0000
    289 H115       13.9880   11.9570   -8.3020 H         1 BCL1        0.0000
    290 H115       12.7080   13.0270   -8.9620 H         1 BCL1        0.0000
    291 C116       14.0910   12.2620  -10.4460 C.3       1 BCL1        0.0000
    292 H116       13.4130   12.4330  -11.3090 H         1 BCL1        0.0000
    293 H116       14.6950   11.3510  -10.6490 H         1 BCL1        0.0000
    294 H116       14.7810   13.1300  -10.3650 H         1 BCL1        0.0000
@<TRIPOS>BOND
     1  207  204 1 
     2  202  201 1 
     3  204  206 1 
     4  204  201 1 
     5  204  205 1 
     6  203  201 1 
     7  201  198 1 
     8  196  195 1 
     9  198  200 1 
    10  198  195 1 
    11  198  199 1 
    12  165  164 1 
    13  197  195 1 
    14  195  192 1 
    15  166  164 1 
    16  164  167 1 
    17  164  161 1 
    18  190  189 1 
    19  292  291 1 
    20  159  158 1 
    21  192  194 1 
    22  192  189 1 
    23  192  193 1 
    24  191  189 1 
    25  189  186 1 
    26  293  291 1 
    27  291  294 1 
    28  291  288 1 
    29  161  158 1 
    30  161  163 1 
    31  161  162 1 
    32  160  158 1 
    33  158  155 1 
    34  286  285 1 
    35  153  152 1 
    36  184  183 1 
    37  287  285 1 
    38  185  183 1 
    39  186  183 1 
    40  186  188 1 
    41  186  187 1 
    42  285  288 1 
    43  285  282 1 
    44  288  290 1 
    45  288  289 1 
    46  157  155 1 
    47  155  152 1 
    48  155  156 1 
    49  183  180 1 
    50  152  154 1 
    51  152  149 1 
    52  280  279 1 
    53  243  242 1 
    54  178  177 1 
    55  147  146 1 
    56  151  149 1 
    57  281  279 1 
    58  238  236 1 
    59  282  279 1 
    60  282  284 1 
    61  282  283 1 
    62  279  276 1 
    63  149  146 1 
    64  149  150 1 
    65  180  182 1 
    66  180  177 1 
    67  180  181 1 
    68  244  242 1 
    69  237  236 1 
    70  275  273 1 
    71  242  245 1 
    72  242  239 1 
    73  177  179 1 
    74  177  174 1 
    75  146  148 1 
    76  146  143 1 
    77  236  239 1 
    78  236  233 1 
    79  234  233 1 
    80  142  140 1 
    81  141  140 1 
    82  276  278 1 
    83  276  273 1 
    84  276  277 1 
    85  239  241 1 
    86  239  240 1 
    87  271  270 1 
    88  273  274 1 
    89  273  270 1 
    90  176  174 1 
    91  116  114 1 
    92  140  143 1 
    93  140  137 1 
    94  269  267 1 
    95  233  235 1 
    96  233  230 1 
    97  174  175 1 
    98  174  171 1 
    99  143  145 1 
   100  143  144 1 
   101  172  171 1 
   102  232  230 1 
   103   83   82 1 
   104  270  267 1 
   105  270  272 1 
   106   82   80 1 
   107  117  114 1 
   108  135  134 1 
   109  136  134 1 
   110  115  114 1 
   111   89   87 1 
   112  114  111 1 
   113  267  268 1 
   114  267  264 1 
   115  171  173 1 
   116  171  168 1 
   117  230  231 1 
   118  230  227 1 
   119  127  126 2 
   120  228  227 1 
   121  265  264 1 
   122   85   84 1 
   123  134  137 1 
   124  134  131 1 
   125  263  261 1 
   126   95   93 1 
   127  137  138 1 
   128  137  139 1 
   129   29   27 1 
   130  254  253 1 
   131  110  108 1 
   132  170  168 1 
   133  264  261 1 
   134  264  266 1 
   135   28   27 1 
   136  227  229 1 
   137  227  224 1 
   138  124  123 1 
   139   80   84 1 
   140   80   27 1 
   141   80   81 1 
   142   87   84 1 
   143   87   88 1 
   144   87   90 1 
   145   94   93 1 
   146  129  128 1 
   147   84   86 1 
   148  101   99 1 
   149   27   25 1 
   150  168  123 1 
   151  168  169 1 
   152  226  224 1 
   153  126  128 1 
   154  126  125 1 
   155  112  111 1 
   156  111  108 1 
   157  111  113 1 
   158  261  262 1 
   159  261  258 1 
   160   93   90 1 
   161   93   96 1 
   162  253  251 1 
   163  259  258 1 
   164   91   90 1 
   165  225  224 1 
   166  224  221 1 
   167  119  118 2 
   168   90   92 1 
   169  123  125 1 
   170  123  120 1 
   171  128  131 1 
   172  128  130 1 
   173  131  133 1 
   174  131  132 1 
   175  108  109 1 
   176  108  105 1 
   177  106  105 1 
   178  252  251 1 
   179  100   99 1 
   180   99   96 1 
   181   99  102 1 
   182  258  260 1 
   183  258  255 1 
   184   21   18 2 
   185  251  255 1 
   186  251  248 1 
   187   96   97 1 
   188   96   98 1 
   189  105  102 1 
   190  105  107 1 
   191   25   23 1 
   192   25   26 2 
   193   23   22 1 
   194  118  120 1 
   195  118   32 am
   196   19   18 1 
   197  249  248 1 
   198  219  218 1 
   199  120  121 1 
   200  120  122 1 
   201   31   30 1 
   202  255  256 1 
   203  255  257 1 
   204  102  104 1 
   205  102  103 1 
   206  220  218 1 
   207  221  218 1 
   208  221  222 1 
   209  221  223 1 
   210   18   20 1 
   211   18   17 1 
   212  248  250 1 
   213  248  246 1 
   214   16   15 1 
   215  218  215 1 
   216   32   30 1 
   217   32   33 1 
   218   22   30 1 
   219   22   15 1 
   220   22   24 1 
   221   30    9 1 
   222  247  246 2 
   223   15   17 1 
   224   15    6 1 
   225  246   78 am
   226  214  212 1 
   227   42   41 1 
   228   77   76 1 
   229   45   47 2 
   230  213  212 1 
   231  215  212 1 
   232  215  216 1 
   233  215  217 1 
   234  212  208 1 
   235   11    9 1 
   236   11   12 1 
   237   78   76 1 
   238   78   79 1 
   239    5    4 1 
   240    9    7 1 
   241    9   10 1 
   242   76   41 1 
   243   76   68 1 
   244   40   41 1 
   245   40   38 1 
   246   41   43 1 
   247    7    6 1 
   248    6    4 1 
   249    6    8 1 
   250   35   34 1 
   251   74   73 1 
   252    4    1 1 
   253    4    2 1 
   254   13   12 1 
   255   12   38 1 
   256   12   14 1 
   257   47   43 1 
   258   47   46 1 
   259   47   44 1 
   260   71   72 2 
   261   71   70 1 
   262   71   73 1 
   263  208   73 1 
   264  208  209 1 
   265  208  210 1 
   266   70   68 1 
   267   38   34 1 
   268   38   39 1 
   269   73   75 1 
   270   34   68 1 
   271   34   36 1 
   272   68   69 1 
   273    3    2 1 
   274   44   48 1 
   275  211  210 1 
   276   37   36 1 
   277   51   50 1 
   278   57   56 1 
   279   48   49 1 
   280   48   53 1 
   281   48   54 1 
   282   53   50 1 
   283   50   52 1 
   284   50   62 1 
   285   59   58 1 
   286   56   54 1 
   287   54   58 1 
   288   54   55 1 
   289   58   62 1 
   290   58   60 1 
   291   63   62 1 
   292   62   64 1 
   293   61   60 1 
   294   66   64 1 
   295   64   65 1 
   296   64   67 1 
