@<TRIPOS>MOLECULE
C:\Users\Praveer\PycharmProjects\pdb_to_mol2_converter\data\pdb\bcmu.pdb
   25    25     0     0     0
SMALL
GASTEIGER

@<TRIPOS>ATOM
      1 N1          1.3740    0.0010    0.0050 N.ar      1 BCM1        0.0000
      2 C2          2.0800    1.2200   -0.0010 C.ar      1 BCM1        0.0000
      3 O2          3.3070    1.2850    0.0010 O.2       1 BCM1        0.0000
      4 N3          1.3200    2.3580   -0.0060 N.ar      1 BCM1        0.0000
      5 H3          1.8140    3.2290    0.0040 H         1 BCM1        0.0000
      6 C4         -0.0540    2.4150   -0.0020 C.ar      1 BCM1        0.0000
      7 O4         -0.5870    3.5220    0.0190 O.2       1 BCM1        0.0000
      8 C5         -0.7520    1.1540   -0.0200 C.ar      1 BCM1        0.0000
      9 C6          0.0030    0.0020   -0.0010 C.ar      1 BCM1        0.0000
     10 H6         -0.4870   -0.9740    0.0310 H         1 BCM1        0.0000
     11 C7         -2.2510    1.1440   -0.0260 C.3       1 BCM1        0.0000
     12 H7         -2.6520    2.0980    0.3840 H         1 BCM1        0.0000
     13 O7         -2.7760    0.0760    0.7920 O.3       1 BCM1        0.0000
     14 H7O        -3.6920   -0.0840    0.5220 H         1 BCM1        0.0000
     15 C8         -2.8170    1.0360   -1.4870 C.2       1 BCM1        0.0000
     16 O8         -3.7550    0.3240   -1.8060 O.2       1 BCM1        0.0000
     17 O9         -2.1470    1.8310   -2.3280 O.3       1 BCM1        0.0000
     18 C10        -2.6460    1.7610   -3.6750 C.3       1 BCM1        0.0000
     19 H101       -3.7130    2.0770   -3.7200 H         1 BCM1        0.0000
     20 H102       -2.5610    0.7270   -4.0770 H         1 BCM1        0.0000
     21 H103       -2.0560    2.4390   -4.3310 H         1 BCM1        0.0000
     22 CM          2.1420   -1.2570    0.0160 C.3       1 BCM1        0.0000
     23 HM1         2.7990   -1.3170    0.9150 H         1 BCM1        0.0000
     24 HM2         2.8030   -1.3320   -0.8790 H         1 BCM1        0.0000
     25 HM3         1.4900   -2.1590    0.0230 H         1 BCM1        0.0000
@<TRIPOS>BOND
     1   21   18 1 
     2   20   18 1 
     3   19   18 1 
     4   18   17 1 
     5   17   15 1 
     6   16   15 2 
     7   15   11 1 
     8   24   22 1 
     9   11    8 1 
    10   11   12 1 
    11   11   13 1 
    12    8    6 ar
    13    8    9 ar
    14    4    6 ar
    15    4    2 ar
    16    4    5 1 
    17    6    7 2 
    18    2    3 2 
    19    2    1 ar
    20    9    1 ar
    21    9   10 1 
    22    1   22 1 
    23   22   25 1 
    24   22   23 1 
    25   14   13 1 
