@<TRIPOS>MOLECULE
C:\Users\Praveer\PycharmProjects\pdb_to_mol2_converter\data\pdb\bcol.pdb
   22    22     0     0     0
SMALL
GASTEIGER

@<TRIPOS>ATOM
      1 C1          1.4160    0.0020    0.0080 C.3       1 BCO1        0.0000
      2 H1          1.7150   -0.5200   -0.9310 H         1 BCO1        0.0000
      3 O1          1.9390   -0.7200    1.0880 O.3       1 BCO1        0.0000
      4 HO1         1.5040   -0.3850    1.8750 H         1 BCO1        0.0000
      5 C5         -0.5850    0.7000   -1.0290 C.3       1 BCO1        0.0000
      6 H5         -0.2330    0.2010   -1.9640 H         1 BCO1        0.0000
      7 O5         -0.0080    0.0370    0.1030 O.3       1 BCO1        0.0000
      8 C2          1.9750    1.4240   -0.0050 C.3       1 BCO1        0.0000
      9 H2          1.7400    1.9050    0.9750 H         1 BCO1        0.0000
     10 O2          3.3850    1.4560   -0.1820 O.3       1 BCO1        0.0000
     11 HO2         3.7900    0.8530    0.4540 H         1 BCO1        0.0000
     12 C3          1.3560    2.2380   -1.1060 C.3       1 BCO1        0.0000
     13 H31         1.7100    1.8530   -2.0910 H         1 BCO1        0.0000
     14 H32         1.6910    3.2990   -1.0320 H         1 BCO1        0.0000
     15 C4         -0.1380    2.1590   -1.0610 C.3       1 BCO1        0.0000
     16 H4         -0.5690    2.6600   -1.9600 H         1 BCO1        0.0000
     17 O4         -0.5970    2.8500    0.0830 O.3       1 BCO1        0.0000
     18 HO4        -0.6310    2.2190    0.8090 H         1 BCO1        0.0000
     19 C6         -2.1110    0.5160   -0.9500 C.3       1 BCO1        0.0000
     20 H61        -2.3660   -0.5650   -0.9520 H         1 BCO1        0.0000
     21 H62        -2.6080    1.0030   -1.8150 H         1 BCO1        0.0000
     22 H63        -2.5090    0.9660   -0.0160 H         1 BCO1        0.0000
@<TRIPOS>BOND
     1   13   12 1 
     2    6    5 1 
     3   16   15 1 
     4   21   19 1 
     5   12   15 1 
     6   12   14 1 
     7   12    8 1 
     8   15    5 1 
     9   15   17 1 
    10    5   19 1 
    11    5    7 1 
    12   20   19 1 
    13   19   22 1 
    14    2    1 1 
    15   10    8 1 
    16   10   11 1 
    17    8    1 1 
    18    8    9 1 
    19    1    7 1 
    20    1    3 1 
    21   17   18 1 
    22    3    4 1 
