@<TRIPOS>MOLECULE
C:\Users\Praveer\PycharmProjects\pdb_to_mol2_converter\data\pdb\bcyu.pdb
   19    19     0     0     0
SMALL
GASTEIGER

@<TRIPOS>ATOM
      1 N1          1.3680    0.0030    0.0010 N.ar      1 BCY1        0.0000
      2 C2          2.0770    1.2200    0.0000 C.ar      1 BCY1        0.0000
      3 O2          3.3040    1.2810    0.0010 O.2       1 BCY1        0.0000
      4 N3          1.3220    2.3600   -0.0000 N.ar      1 BCY1        0.0000
      5 H3          1.8190    3.2290   -0.0010 H         1 BCY1        0.0000
      6 C4         -0.0520    2.4220   -0.0000 C.ar      1 BCY1        0.0000
      7 O4         -0.5820    3.5300   -0.0010 O.2       1 BCY1        0.0000
      8 C5         -0.7580    1.1600    0.0000 C.ar      1 BCY1        0.0000
      9 C6         -0.0020    0.0040    0.0010 C.ar      1 BCY1        0.0000
     10 H6         -0.4800   -0.9790    0.0020 H         1 BCY1        0.0000
     11 C7         -2.2640    1.2040    0.0000 C.3       1 BCY1        0.0000
     12 H71        -2.5900    1.7700   -0.9000 H         1 BCY1        0.0000
     13 H72        -2.5900    1.7670    0.9020 H         1 BCY1        0.0000
     14 C8         -2.9530   -0.0950   -0.0020 C.1       1 BCY1        0.0000
     15 N9         -3.4300   -1.1720   -0.0030 N.1       1 BCY1        0.0000
     16 CM          2.1330   -1.2560    0.0020 C.3       1 BCY1        0.0000
     17 HM1         2.7920   -1.3240    0.9000 H         1 BCY1        0.0000
     18 HM2         2.7930   -1.3250   -0.8950 H         1 BCY1        0.0000
     19 HM3         1.4800   -2.1580    0.0020 H         1 BCY1        0.0000
@<TRIPOS>BOND
     1   12   11 1 
     2   18   16 1 
     3   15   14 3 
     4   14   11 1 
     5    5    4 1 
     6    7    6 2 
     7    2    4 ar
     8    2    1 ar
     9    2    3 2 
    10    4    6 ar
    11    6    8 ar
    12    8   11 1 
    13    8    9 ar
    14   11   13 1 
    15    1    9 ar
    16    1   16 1 
    17    9   10 1 
    18   16   19 1 
    19   16   17 1 
