@<TRIPOS>MOLECULE
C:\Users\Praveer\PycharmProjects\pdb_to_mol2_converter\data\pdb\bdag.pdb
   26    27     0     0     0
SMALL
GASTEIGER

@<TRIPOS>ATOM
      1 N9          1.3840    0.0030    0.0010 N.ar      1 BDA1        0.0000
      2 C8          1.8620    1.3070    0.0030 C.ar      1 BDA1        0.0000
      3 H8          2.9220    1.5220   -0.0220 H         1 BDA1        0.0000
      4 C7          0.7950    2.1690    0.0010 C.ar      1 BDA1        0.0000
      5 C5         -0.3920    1.3510    0.0180 C.ar      1 BDA1        0.0000
      6 C6         -1.7580    1.6670    0.0360 C.ar      1 BDA1        0.0000
      7 O6         -2.2570    2.7930    0.0810 O.2       1 BDA1        0.0000
      8 N1         -2.5790    0.5560    0.0210 N.ar      1 BDA1        0.0000
      9 H1         -3.5660    0.7230    0.0130 H         1 BDA1        0.0000
     10 C2         -2.1460   -0.7530   -0.0100 C.ar      1 BDA1        0.0000
     11 N2         -3.0750   -1.7020   -0.0280 N.pl3     1 BDA1        0.0000
     12 H21        -4.0500   -1.5160   -0.0300 H         1 BDA1        0.0000
     13 H22        -2.7530   -2.6460   -0.0450 H         1 BDA1        0.0000
     14 N3         -0.8390   -1.0470   -0.0050 N.ar      1 BDA1        0.0000
     15 C4          0.0000    0.0050    0.0010 C.ar      1 BDA1        0.0000
     16 C10         0.8460    3.6540   -0.1490 C.3       1 BDA1        0.0000
     17 H101        0.5470    3.9310   -1.1730 H         1 BDA1        0.0000
     18 H102        1.8590    4.0380    0.0530 H         1 BDA1        0.0000
     19 N11        -0.1030    4.3040    0.8000 N.4       1 BDA1        0.0000
     20 H111        0.1560    4.0850    1.7800 H         1 BDA1        0.0000
     21 H112       -1.0570    3.8980    0.6030 H         1 BDA1        0.0000
     22 H113       -0.1360    5.3310    0.6530 H         1 BDA1        0.0000
     23 CM          2.2140   -1.2060   -0.0060 C.3       1 BDA1        0.0000
     24 HM1         3.3020   -0.9770   -0.0080 H         1 BDA1        0.0000
     25 HM2         1.9870   -1.8190   -0.9060 H         1 BDA1        0.0000
     26 HM3         1.9920   -1.8270    0.8890 H         1 BDA1        0.0000
@<TRIPOS>BOND
     1   17   16 1 
     2   25   23 1 
     3   16    4 1 
     4   16   18 1 
     5   16   19 1 
     6   13   11 1 
     7   12   11 1 
     8   11   10 1 
     9    3    2 1 
    10   10   14 ar
    11   10    8 ar
    12   24   23 1 
    13   23    1 1 
    14   23   26 1 
    15   14   15 ar
    16    1   15 ar
    17    1    2 ar
    18    4    2 ar
    19    4    5 ar
    20   15    5 ar
    21    9    8 1 
    22    5    6 ar
    23    8    6 ar
    24    6    7 2 
    25   21   19 1 
    26   22   19 1 
    27   19   20 1 
