@<TRIPOS>MOLECULE
C:\Users\Praveer\PycharmProjects\pdb_to_mol2_converter\data\pdb\bdarbp.pdb
   20    20     0     0     0
SMALL
GASTEIGER

@<TRIPOS>ATOM
      1 C1          1.4230   -0.0260    0.0580 C.3       1 BDA1        0.0000
      2 H1          1.7800   -0.5870   -0.8380 H         1 BDA1        0.0000
      3 O1          1.8460   -0.7320    1.2010 O.3       1 BDA1        0.0000
      4 HO1         2.7800   -0.9250    1.0740 H         1 BDA1        0.0000
      5 C5         -0.5800    0.8360    1.0290 C.3       1 BDA1        0.0000
      6 H51        -0.3580    0.3400    2.0000 H         1 BDA1        0.0000
      7 H52        -1.6880    0.8370    0.9150 H         1 BDA1        0.0000
      8 O5         -0.0020    0.0910   -0.0550 O.3       1 BDA1        0.0000
      9 C2          2.0410    1.3740    0.0270 C.3       1 BDA1        0.0000
     10 H2          1.7850    1.8170   -0.9640 H         1 BDA1        0.0000
     11 O2          3.4710    1.3520    0.1110 O.3       1 BDA1        0.0000
     12 HO2         3.7110    1.6290    1.0060 H         1 BDA1        0.0000
     13 C3          1.4440    2.2610    1.1060 C.3       1 BDA1        0.0000
     14 H3          1.8010    3.3090    0.9460 H         1 BDA1        0.0000
     15 O3          1.8820    1.8720    2.4070 O.3       1 BDA1        0.0000
     16 HO3         1.7540    0.9130    2.4860 H         1 BDA1        0.0000
     17 C4         -0.0640    2.2590    1.0260 C.3       1 BDA1        0.0000
     18 H4         -0.4830    2.8150    1.8990 H         1 BDA1        0.0000
     19 O4         -0.5080    2.9130   -0.1520 O.3       1 BDA1        0.0000
     20 HO4        -0.6240    2.2480   -0.8410 H         1 BDA1        0.0000
@<TRIPOS>BOND
     1   10    9 1 
     2   20   19 1 
     3    2    1 1 
     4   19   17 1 
     5    8    1 1 
     6    8    5 1 
     7    9    1 1 
     8    9   11 1 
     9    9   13 1 
    10    1    3 1 
    11   11   12 1 
    12    7    5 1 
    13   14   13 1 
    14   17    5 1 
    15   17   13 1 
    16   17   18 1 
    17    5    6 1 
    18    4    3 1 
    19   13   15 1 
    20   15   16 1 
