@<TRIPOS>MOLECULE
C:\Users\Praveer\PycharmProjects\pdb_to_mol2_converter\data\pdb\bdcg.pdb
   21    22     0     0     0
SMALL
GASTEIGER

@<TRIPOS>ATOM
      1 N9          1.3820    0.0040    0.0000 N.ar      1 BDC1        0.0000
      2 C8          1.8560    1.3060    0.0000 C.ar      1 BDC1        0.0000
      3 H8          2.9120    1.5360    0.0000 H         1 BDC1        0.0000
      4 C7          0.7880    2.1590    0.0000 C.ar      1 BDC1        0.0000
      5 C5         -0.4030    1.3510    0.0000 C.ar      1 BDC1        0.0000
      6 C6         -1.7750    1.6690   -0.0000 C.ar      1 BDC1        0.0000
      7 O6         -2.3160    2.7720   -0.0000 O.2       1 BDC1        0.0000
      8 N1         -2.5880    0.5550   -0.0000 N.ar      1 BDC1        0.0000
      9 H1         -3.5710    0.7330   -0.0000 H         1 BDC1        0.0000
     10 C2         -2.1540   -0.7490   -0.0000 C.ar      1 BDC1        0.0000
     11 N2         -3.0900   -1.6970   -0.0010 N.pl3     1 BDC1        0.0000
     12 H21        -4.0630   -1.4960   -0.0010 H         1 BDC1        0.0000
     13 H22        -2.7770   -2.6430   -0.0010 H         1 BDC1        0.0000
     14 N3         -0.8460   -1.0480   -0.0000 N.ar      1 BDC1        0.0000
     15 C4         -0.0030    0.0050   -0.0000 C.ar      1 BDC1        0.0000
     16 C10         0.8610    3.5840    0.0000 C.1       1 BDC1        0.0000
     17 N10         0.9540    4.7600    0.0000 N.1       1 BDC1        0.0000
     18 CM          2.2110   -1.2020    0.0000 C.3       1 BDC1        0.0000
     19 HM1         3.2970   -0.9690    0.0000 H         1 BDC1        0.0000
     20 HM2         1.9830   -1.8140   -0.8990 H         1 BDC1        0.0000
     21 HM3         1.9820   -1.8150    0.8990 H         1 BDC1        0.0000
@<TRIPOS>BOND
     1   20   18 1 
     2   11   12 1 
     3   11   13 1 
     4   11   10 1 
     5    1    2 ar
     6    1   15 ar
     7    1   18 1 
     8    2    3 1 
     9    2    4 ar
    10    4    5 ar
    11    4   16 1 
    12    5    6 ar
    13    5   15 ar
    14    6    7 2 
    15    6    8 ar
    16    8    9 1 
    17    8   10 ar
    18   10   14 ar
    19   14   15 ar
    20   16   17 3 
    21   18   19 1 
    22   18   21 1 
