@<TRIPOS>MOLECULE
C:\Users\Praveer\PycharmProjects\pdb_to_mol2_converter\data\pdb\bddg.pdb
   60    60     0     0     0
SMALL
GASTEIGER

@<TRIPOS>ATOM
      1 2C1         1.5090    0.0380    0.1120 C.3       1 BDD1        0.0000
      2 2H1         1.8550   -0.3940    1.0800 H         1 BDD1        0.0000
      3 2O1         2.0440   -0.6990   -0.9580 O.3       1 BDD1        0.0000
      4 2C5        -0.5030    0.7260    1.1800 C.3       1 BDD1        0.0000
      5 2H5        -0.1460    0.2340    2.1170 H         1 BDD1        0.0000
      6 2O5         0.0770    0.0620    0.0440 O.3       1 BDD1        0.0000
      7 2C2         1.9780    1.4740   -0.0160 C.3       1 BDD1        0.0000
      8 2H2         1.5690    1.8840   -0.9720 H         1 BDD1        0.0000
      9 2O2         3.4100    1.5700   -0.0730 O.3       1 BDD1        0.0000
     10 2HO2        3.7240    1.1150   -0.8570 H         1 BDD1        0.0000
     11 2C3         1.4340    2.3080    1.1250 C.3       1 BDD1        0.0000
     12 2H3         1.8670    1.9220    2.0810 H         1 BDD1        0.0000
     13 2O3         1.8300    3.6740    1.0020 O.3       1 BDD1        0.0000
     14 2HO3        2.7790    3.6680    0.8100 H         1 BDD1        0.0000
     15 2C4        -0.0730    2.1880    1.1890 C.3       1 BDD1        0.0000
     16 2H4        -0.4990    2.6790    0.2790 H         1 BDD1        0.0000
     17 2O4        -0.5950    2.8470    2.3340 O.3       1 BDD1        0.0000
     18 2HO4       -0.2160    3.7360    2.3550 H         1 BDD1        0.0000
     19 2C6        -2.0070    0.5630    1.1090 C.3       1 BDD1        0.0000
     20 2H61       -2.4040    1.0710    0.2010 H         1 BDD1        0.0000
     21 2H62       -2.4770    1.0400    1.9990 H         1 BDD1        0.0000
     22 2O6        -2.3840   -0.8130    1.0810 O.3       1 BDD1        0.0000
     23 2HO6       -2.0020   -1.2200    0.2940 H         1 BDD1        0.0000
     24 C1          1.8280   -2.0970   -0.7890 C.3       1 BDD1        0.0000
     25 H11         0.7380   -2.3150   -0.7230 H         1 BDD1        0.0000
     26 H12         2.3100   -2.4390    0.1550 H         1 BDD1        0.0000
     27 C2          2.4260   -2.8920   -1.9580 C.3       1 BDD1        0.0000
     28 H21         3.4940   -2.6050   -2.0780 H         1 BDD1        0.0000
     29 H22         1.8940   -2.6130   -2.8960 H         1 BDD1        0.0000
     30 C3          2.3350   -4.4120   -1.7480 C.3       1 BDD1        0.0000
     31 H31         1.2680   -4.7110   -1.6440 H         1 BDD1        0.0000
     32 H32         2.8540   -4.6750   -0.7980 H         1 BDD1        0.0000
     33 C4          2.9720   -5.2160   -2.8890 C.3       1 BDD1        0.0000
     34 H41         4.0320   -4.8960   -3.0110 H         1 BDD1        0.0000
     35 H42         2.4400   -5.0000   -3.8430 H         1 BDD1        0.0000
     36 C5          2.9390   -6.7250   -2.6210 C.3       1 BDD1        0.0000
     37 H51         1.8800   -7.0670   -2.5660 H         1 BDD1        0.0000
     38 H52         3.4080   -6.9300   -1.6320 H         1 BDD1        0.0000
     39 C6          3.6780   -7.5370   -3.6930 C.3       1 BDD1        0.0000
     40 H61         4.7530   -7.2410   -3.6940 H         1 BDD1        0.0000
     41 H62         3.2620   -7.3020   -4.7000 H         1 BDD1        0.0000
     42 C7          3.5650   -9.0440   -3.4410 C.3       1 BDD1        0.0000
     43 H71         2.5080   -9.3640   -3.5820 H         1 BDD1        0.0000
     44 H72         3.8420   -9.2620   -2.3840 H         1 BDD1        0.0000
     45 C8          4.4780   -9.8640   -4.3580 C.3       1 BDD1        0.0000
     46 H81         5.5370   -9.5930   -4.1430 H         1 BDD1        0.0000
     47 H82         4.2740   -9.6110   -5.4220 H         1 BDD1        0.0000
     48 C9          4.2950  -11.3720   -4.1520 C.3       1 BDD1        0.0000
     49 H91         3.3010  -11.6770   -4.5490 H         1 BDD1        0.0000
     50 H92         4.3070  -11.5940   -3.0600 H         1 BDD1        0.0000
     51 C10         5.3980  -12.1890   -4.8290 C.3       1 BDD1        0.0000
     52 H101        6.3720  -11.9420   -4.3500 H         1 BDD1        0.0000
     53 H102        5.4690  -11.9010   -5.9020 H         1 BDD1        0.0000
     54 C11         5.1590  -13.6990   -4.7320 C.3       1 BDD1        0.0000
     55 H111        4.2220  -13.9510   -5.2830 H         1 BDD1        0.0000
     56 H112        4.9960  -13.9750   -3.6630 H         1 BDD1        0.0000
     57 C12         6.3240  -14.5140   -5.2950 C.3       1 BDD1        0.0000
     58 H121        7.2530  -14.3140   -4.7120 H         1 BDD1        0.0000
     59 H122        6.5130  -14.2380   -6.3570 H         1 BDD1        0.0000
     60 H123        6.0990  -15.6000   -5.2440 H         1 BDD1        0.0000
@<TRIPOS>BOND
     1   59   57 1 
     2   53   51 1 
     3   47   45 1 
     4   57   60 1 
     5   57   54 1 
     6   57   58 1 
     7   55   54 1 
     8   51   54 1 
     9   51   52 1 
    10   51   48 1 
    11   54   56 1 
    12   41   39 1 
    13   49   48 1 
    14   45   48 1 
    15   45   46 1 
    16   45   42 1 
    17   48   50 1 
    18   35   33 1 
    19   40   39 1 
    20   39   42 1 
    21   39   36 1 
    22   43   42 1 
    23   42   44 1 
    24   34   33 1 
    25   29   27 1 
    26   33   36 1 
    27   33   30 1 
    28   36   37 1 
    29   36   38 1 
    30   28   27 1 
    31   27   30 1 
    32   27   24 1 
    33   30   31 1 
    34   30   32 1 
    35    8    7 1 
    36    3   24 1 
    37    3    1 1 
    38   10    9 1 
    39   24   25 1 
    40   24   26 1 
    41    9    7 1 
    42    7    1 1 
    43    7   11 1 
    44    6    1 1 
    45    6    4 1 
    46    1    2 1 
    47   20   19 1 
    48   16   15 1 
    49   23   22 1 
    50   14   13 1 
    51   13   11 1 
    52   22   19 1 
    53   19    4 1 
    54   19   21 1 
    55   11   15 1 
    56   11   12 1 
    57    4   15 1 
    58    4    5 1 
    59   15   17 1 
    60   17   18 1 
