@<TRIPOS>MOLECULE
C:\Users\Praveer\PycharmProjects\pdb_to_mol2_converter\data\pdb\bddm.pdb
   81    82     0     0     0
SMALL
GASTEIGER

@<TRIPOS>ATOM
      1 1C1         2.0540    2.0570    1.3300 C.3       1 BDD1        0.0000
      2 1H1         1.0010    2.3410    1.5530 H         1 BDD1        0.0000
      3 1C5         3.9800    1.0470    2.3410 C.3       1 BDD1        0.0000
      4 1H5         4.1380    0.4470    1.4170 H         1 BDD1        0.0000
      5 1O5         2.5840    1.3720    2.4740 O.3       1 BDD1        0.0000
      6 1C2         2.8230    3.3470    1.1020 C.3       1 BDD1        0.0000
      7 1H2         2.6460    3.9980    1.9940 H         1 BDD1        0.0000
      8 1O2         2.3450    4.0590   -0.0450 O.3       1 BDD1        0.0000
      9 1HO2        2.1970    3.4310   -0.7630 H         1 BDD1        0.0000
     10 1C3         4.3160    3.1000    1.0120 C.3       1 BDD1        0.0000
     11 1H3         4.5210    2.4830    0.1030 H         1 BDD1        0.0000
     12 1O3         5.0310    4.3270    0.8700 O.3       1 BDD1        0.0000
     13 1HO3        4.5120    4.8940    0.2840 H         1 BDD1        0.0000
     14 1C4         4.7850    2.3280    2.2260 C.3       1 BDD1        0.0000
     15 1H4         4.6110    2.9430    3.1410 H         1 BDD1        0.0000
     16 1O4         6.1750    2.0440    2.1450 O.3       1 BDD1        0.0000
     17 1HO4        6.6100    2.8600    1.8670 H         1 BDD1        0.0000
     18 1C6         4.3680    0.1800    3.5200 C.3       1 BDD1        0.0000
     19 1H61        4.2410    0.7460    4.4710 H         1 BDD1        0.0000
     20 1H62        5.4380   -0.1180    3.4380 H         1 BDD1        0.0000
     21 1O6         3.5760   -1.0070    3.5660 O.3       1 BDD1        0.0000
     22 1HO6        2.6550   -0.7520    3.6960 H         1 BDD1        0.0000
     23 2C1         0.0980   -2.0560   -1.3170 C.3       1 BDD1        0.0000
     24 2H1        -0.1140   -1.4600   -2.2340 H         1 BDD1        0.0000
     25 2O1        -0.4390   -3.3480   -1.4490 O.3       1 BDD1        0.0000
     26 2C5         2.0820   -0.7960   -0.9800 C.3       1 BDD1        0.0000
     27 2H5         1.8490   -0.2450   -1.9250 H         1 BDD1        0.0000
     28 2O5         1.5010   -2.1090   -1.0420 O.3       1 BDD1        0.0000
     29 2C2        -0.5520   -1.4180   -0.1140 C.3       1 BDD1        0.0000
     30 2H2        -0.2690   -2.0180    0.7850 H         1 BDD1        0.0000
     31 2O2        -1.9810   -1.4330   -0.2140 O.3       1 BDD1        0.0000
     32 2HO2       -2.2670   -2.3510   -0.3070 H         1 BDD1        0.0000
     33 2C3        -0.0230   -0.0070    0.0770 C.3       1 BDD1        0.0000
     34 2H3        -0.3040    0.5950   -0.8210 H         1 BDD1        0.0000
     35 2O3        -0.6420    0.5930    1.2070 O.3       1 BDD1        0.0000
     36 2HO3       -1.5810    0.3690    1.1590 H         1 BDD1        0.0000
     37 2C4         1.4920   -0.0160    0.1900 C.3       1 BDD1        0.0000
     38 2H4         1.7820   -0.5430    1.1310 H         1 BDD1        0.0000
     39 2O4         2.1040    1.2850    0.1480 O.3       1 BDD1        0.0000
     40 2C6         3.5840   -0.9620   -0.9010 C.3       1 BDD1        0.0000
     41 2H61        3.8610   -1.5270    0.0190 H         1 BDD1        0.0000
     42 2H62        4.0760    0.0350   -0.8550 H         1 BDD1        0.0000
     43 2O6         4.0940   -1.6460   -2.0460 O.3       1 BDD1        0.0000
     44 2HO6        3.7570   -2.5490   -2.0410 H         1 BDD1        0.0000
     45 C1         -0.0640   -3.9420   -2.6830 C.3       1 BDD1        0.0000
     46 H11         1.0450   -4.0200   -2.7480 H         1 BDD1        0.0000
     47 H12        -0.4220   -3.3140   -3.5300 H         1 BDD1        0.0000
     48 C2         -0.6840   -5.3390   -2.8080 C.3       1 BDD1        0.0000
     49 H21        -1.7790   -5.2620   -2.6240 H         1 BDD1        0.0000
     50 H22        -0.2560   -5.9980   -2.0210 H         1 BDD1        0.0000
     51 C3         -0.4540   -5.9630   -4.1920 C.3       1 BDD1        0.0000
     52 H31         0.6400   -6.0290   -4.3890 H         1 BDD1        0.0000
     53 H32        -0.8960   -5.2920   -4.9650 H         1 BDD1        0.0000
     54 C4         -1.0760   -7.3580   -4.3390 C.3       1 BDD1        0.0000
     55 H41        -2.1640   -7.2980   -4.1130 H         1 BDD1        0.0000
     56 H42        -0.6130   -8.0520   -3.6020 H         1 BDD1        0.0000
     57 C5         -0.8900   -7.9250   -5.7530 C.3       1 BDD1        0.0000
     58 H51         0.1970   -8.0340   -5.9620 H         1 BDD1        0.0000
     59 H52        -1.3030   -7.1980   -6.4890 H         1 BDD1        0.0000
     60 C6         -1.5840   -9.2770   -5.9610 C.3       1 BDD1        0.0000
     61 H61        -2.6780   -9.1470   -5.8000 H         1 BDD1        0.0000
     62 H62        -1.2170  -10.0070   -5.2050 H         1 BDD1        0.0000
     63 C7         -1.3420   -9.8430   -7.3680 C.3       1 BDD1        0.0000
     64 H71        -0.2710  -10.1290   -7.4680 H         1 BDD1        0.0000
     65 H72        -1.5490   -9.0490   -8.1210 H         1 BDD1        0.0000
     66 C8         -2.2290  -11.0540   -7.6850 C.3       1 BDD1        0.0000
     67 H81        -3.2920  -10.7220   -7.6790 H         1 BDD1        0.0000
     68 H82        -2.1110  -11.8240   -6.8910 H         1 BDD1        0.0000
     69 C9         -1.9050  -11.6820   -9.0480 C.3       1 BDD1        0.0000
     70 H91        -0.9320  -12.2180   -8.9750 H         1 BDD1        0.0000
     71 H92        -1.7910  -10.8760   -9.8070 H         1 BDD1        0.0000
     72 C10        -2.9950  -12.6500   -9.5300 C.3       1 BDD1        0.0000
     73 H101       -3.9210  -12.0700   -9.7400 H         1 BDD1        0.0000
     74 H102       -3.2290  -13.3770   -8.7200 H         1 BDD1        0.0000
     75 C11        -2.5870  -13.4250  -10.7900 C.3       1 BDD1        0.0000
     76 H111       -1.7320  -14.0920  -10.5350 H         1 BDD1        0.0000
     77 H112       -2.2280  -12.7030  -11.5580 H         1 BDD1        0.0000
     78 C12        -3.7250  -14.2610  -11.3830 C.3       1 BDD1        0.0000
     79 H121       -4.5490  -13.6010  -11.7300 H         1 BDD1        0.0000
     80 H122       -4.1330  -14.9600  -10.6210 H         1 BDD1        0.0000
     81 H123       -3.3640  -14.8550  -12.2500 H         1 BDD1        0.0000
@<TRIPOS>BOND
     1   81   78 1 
     2   79   78 1 
     3   77   75 1 
     4   78   75 1 
     5   78   80 1 
     6   75   76 1 
     7   75   72 1 
     8   71   69 1 
     9   73   72 1 
    10   72   69 1 
    11   72   74 1 
    12   69   70 1 
    13   69   66 1 
    14   65   63 1 
    15   66   67 1 
    16   66   63 1 
    17   66   68 1 
    18   64   63 1 
    19   63   60 1 
    20   59   57 1 
    21   58   57 1 
    22   60   61 1 
    23   60   57 1 
    24   60   62 1 
    25   57   54 1 
    26   53   51 1 
    27   52   51 1 
    28   54   51 1 
    29   54   55 1 
    30   54   56 1 
    31   51   48 1 
    32   47   45 1 
    33   48   45 1 
    34   48   49 1 
    35   48   50 1 
    36   46   45 1 
    37   45   25 1 
    38   24   23 1 
    39   43   44 1 
    40   43   40 1 
    41   27   26 1 
    42   25   23 1 
    43   23   28 1 
    44   23   29 1 
    45   28   26 1 
    46   26   40 1 
    47   26   37 1 
    48   40   42 1 
    49   40   41 1 
    50   34   33 1 
    51    9    8 1 
    52   32   31 1 
    53   31   29 1 
    54   29   33 1 
    55   29   30 1 
    56    8    6 1 
    57   33   37 1 
    58   33   35 1 
    59   11   10 1 
    60   39   37 1 
    61   39    1 1 
    62   37   38 1 
    63   13   12 1 
    64   12   10 1 
    65   10    6 1 
    66   10   14 1 
    67    6    1 1 
    68    6    7 1 
    69   36   35 1 
    70    1    2 1 
    71    1    5 1 
    72    4    3 1 
    73   17   16 1 
    74   16   14 1 
    75   14    3 1 
    76   14   15 1 
    77    3    5 1 
    78    3   18 1 
    79   20   18 1 
    80   18   21 1 
    81   18   19 1 
    82   21   22 1 
