@<TRIPOS>MOLECULE
C:\Users\Praveer\PycharmProjects\pdb_to_mol2_converter\data\pdb\bdeo.pdb
   19    19     0     0     0
SMALL
GASTEIGER

@<TRIPOS>ATOM
      1 O4          1.3180    0.0980    0.3950 O.3       1 BDE1        0.0000
      2 C1          1.8660    1.3450   -0.0260 C.3       1 BDE1        0.0000
      3 H1          2.4760    1.7680    0.8040 H         1 BDE1        0.0000
      4 O1          2.6570    1.1460   -1.1460 O.3       1 BDE1        0.0000
      5 HO1         3.3060    0.4850   -0.9000 H         1 BDE1        0.0000
      6 C4         -0.0910    0.0780    0.1130 C.3       1 BDE1        0.0000
      7 H4         -0.6060    0.3180    1.0720 H         1 BDE1        0.0000
      8 C5         -0.4970   -1.2880   -0.3710 C.3       1 BDE1        0.0000
      9 H51        -0.2390   -2.0440    0.4060 H         1 BDE1        0.0000
     10 H52         0.0620   -1.5400   -1.3010 H         1 BDE1        0.0000
     11 O5         -1.9040   -1.3300   -0.6320 O.3       1 BDE1        0.0000
     12 HO5        -2.1840   -2.2290   -0.8340 H         1 BDE1        0.0000
     13 C2          0.6860    2.2120   -0.3930 C.3       1 BDE1        0.0000
     14 H21         0.9190    2.9960   -1.1260 H         1 BDE1        0.0000
     15 H22         0.2930    2.7180    0.5050 H         1 BDE1        0.0000
     16 C3         -0.2950    1.1910   -0.9060 C.3       1 BDE1        0.0000
     17 H3         -0.0450    0.8580   -1.9380 H         1 BDE1        0.0000
     18 O3         -1.6020    1.6810   -0.8350 O.3       1 BDE1        0.0000
     19 HO3        -2.1910    0.9210   -0.9400 H         1 BDE1        0.0000
@<TRIPOS>BOND
     1   17   16 1 
     2   10    8 1 
     3    4    5 1 
     4    4    2 1 
     5   14   13 1 
     6   19   18 1 
     7   16   18 1 
     8   16   13 1 
     9   16    6 1 
    10   12   11 1 
    11   11    8 1 
    12   13    2 1 
    13   13   15 1 
    14    8    6 1 
    15    8    9 1 
    16    2    1 1 
    17    2    3 1 
    18    6    1 1 
    19    6    7 1 
