@<TRIPOS>MOLECULE
C:\Users\Praveer\PycharmProjects\pdb_to_mol2_converter\data\pdb\bdfd.pdb
   18    18     0     0     0
SMALL
GASTEIGER

@<TRIPOS>ATOM
      1 CG          1.3890   -0.0260    0.0360 C.ar      1 BDF1        0.0000
      2 HG          1.9440   -0.9500    0.0570 H         1 BDF1        0.0000
      3 CD1         2.0680    1.1980    0.0010 C.ar      1 BDF1        0.0000
      4 HD1         3.1460    1.2200   -0.0170 H         1 BDF1        0.0000
      5 CD2        -0.0110   -0.0510   -0.0040 C.ar      1 BDF1        0.0000
      6 HD2        -0.5370   -0.9920   -0.0260 H         1 BDF1        0.0000
      7 CE1         1.3450    2.3950   -0.0410 C.ar      1 BDF1        0.0000
      8 HE1         1.8490    3.3480   -0.1380 H         1 BDF1        0.0000
      9 CE2        -0.7290    1.1500   -0.0460 C.ar      1 BDF1        0.0000
     10 HE2        -1.8070    1.1540   -0.1500 H         1 BDF1        0.0000
     11 CZ         -0.0660    2.3950   -0.0140 C.ar      1 BDF1        0.0000
     12 CF         -0.8490    3.6950   -0.1220 C.3       1 BDF1        0.0000
     13 F1         -1.9830    3.5540    0.6180 F         1 BDF1        0.0000
     14 F2         -0.1650    4.6510    0.5640 F         1 BDF1        0.0000
     15 P1         -1.2240    4.2270   -1.9200 P.3       1 BDF1        0.0000
     16 O2         -1.9800    5.4930   -1.6840 O.3       1 BDF1        0.0000
     17 O3          0.1550    4.3850   -2.4740 O.2       1 BDF1        0.0000
     18 O4         -2.0310    3.0660   -2.4070 O.3       1 BDF1        0.0000
@<TRIPOS>BOND
     1   17   15 2 
     2   18   15 1 
     3   15   16 1 
     4   15   12 1 
     5   10    9 1 
     6    8    7 1 
     7   12   11 1 
     8   12   14 1 
     9   12   13 1 
    10    9   11 ar
    11    9    5 ar
    12    7   11 ar
    13    7    3 ar
    14    6    5 1 
    15    4    3 1 
    16    5    1 ar
    17    3    1 ar
    18    1    2 1 
