@<TRIPOS>MOLECULE
C:\Users\Praveer\PycharmProjects\pdb_to_mol2_converter\data\pdb\bdfp.pdb
   19    19     0     0     0
SMALL
GASTEIGER

@<TRIPOS>ATOM
      1 CG          1.4200   -0.0530    0.0190 C.ar      1 BDF1        0.0000
      2 HG          1.9580   -0.9890    0.0310 H         1 BDF1        0.0000
      3 CD1         2.1210    1.1580    0.0210 C.ar      1 BDF1        0.0000
      4 HD1         3.2000    1.1570    0.0420 H         1 BDF1        0.0000
      5 CD2         0.0210   -0.0500    0.0270 C.ar      1 BDF1        0.0000
      6 HD2        -0.5210   -0.9840    0.0510 H         1 BDF1        0.0000
      7 CE1         1.4230    2.3710    0.0120 C.ar      1 BDF1        0.0000
      8 HE1         1.9700    3.3040    0.0540 H         1 BDF1        0.0000
      9 CE2        -0.6780    1.1630    0.0190 C.ar      1 BDF1        0.0000
     10 HE2        -1.7590    1.1590    0.0640 H         1 BDF1        0.0000
     11 CZ          0.0110    2.3950   -0.0270 C.ar      1 BDF1        0.0000
     12 CF         -0.7360    3.6970    0.0190 C.3       1 BDF1        0.0000
     13 F1         -0.0860    4.6150   -0.7320 F         1 BDF1        0.0000
     14 F2         -1.9290    3.5710   -0.6020 F         1 BDF1        0.0000
     15 P1         -0.9820    4.3530    1.7540 P.3       1 BDF1        0.0000
     16 O2         -1.7480    5.6980    1.3950 O.3       1 BDF1        0.0000
     17 H2         -1.0950    6.3870    1.2280 H         1 BDF1        0.0000
     18 O3         -1.8740    3.3690    2.4130 O.3       1 BDF1        0.0000
     19 O4          0.3830    4.7290    2.1970 O.2       1 BDF1        0.0000
@<TRIPOS>BOND
     1   13   12 1 
     2   14   12 1 
     3   11    7 ar
     4   11    9 ar
     5   11   12 1 
     6    7    3 ar
     7    7    8 1 
     8    1    3 ar
     9    1    5 ar
    10    1    2 1 
    11    9    5 ar
    12    9   10 1 
    13   12   15 1 
    14    3    4 1 
    15    5    6 1 
    16   17   16 1 
    17   16   15 1 
    18   15   19 2 
    19   15   18 1 
