@<TRIPOS>MOLECULE
C:\Users\Praveer\PycharmProjects\pdb_to_mol2_converter\data\pdb\bdfuc.pdb
   23    23     0     0     0
SMALL
GASTEIGER

@<TRIPOS>ATOM
      1 C1          1.5600   -1.9510    1.4420 C.3       1 BDF1        0.0000
      2 H1          2.0340   -2.5540    0.6320 H         1 BDF1        0.0000
      3 O1          2.0020   -2.4500    2.6710 O.3       1 BDF1        0.0000
      4 HO1         1.8050   -1.7610    3.3120 H         1 BDF1        0.0000
      5 C5          1.5730   -0.0050    0.0940 C.3       1 BDF1        0.0000
      6 H5          2.0230   -0.5960   -0.7380 H         1 BDF1        0.0000
      7 O5          1.9750   -0.5930    1.3360 O.3       1 BDF1        0.0000
      8 C2          0.0420   -2.0640    1.3430 C.3       1 BDF1        0.0000
      9 H2         -0.4010   -1.4780    2.1840 H         1 BDF1        0.0000
     10 O2         -0.4110   -3.4180    1.4690 O.3       1 BDF1        0.0000
     11 HO2         0.0450   -3.8200    2.2210 H         1 BDF1        0.0000
     12 C3         -0.4340   -1.4550    0.0370 C.3       1 BDF1        0.0000
     13 H3          0.0130   -2.0420   -0.8020 H         1 BDF1        0.0000
     14 O3         -1.8520   -1.5420   -0.0940 O.3       1 BDF1        0.0000
     15 HO3        -2.1010   -2.4310    0.1950 H         1 BDF1        0.0000
     16 C4          0.0520   -0.0260   -0.0720 C.3       1 BDF1        0.0000
     17 H4         -0.1960    0.3650   -1.0870 H         1 BDF1        0.0000
     18 O4         -0.5970    0.8090    0.8810 O.3       1 BDF1        0.0000
     19 HO4        -1.5440    0.6340    0.8070 H         1 BDF1        0.0000
     20 C6          2.1820    1.4070    0.0350 C.3       1 BDF1        0.0000
     21 H61         1.9230    1.9080   -0.9200 H         1 BDF1        0.0000
     22 H62         3.2870    1.3520    0.1280 H         1 BDF1        0.0000
     23 H63         1.7910    2.0210    0.8750 H         1 BDF1        0.0000
@<TRIPOS>BOND
     1   17   16 1 
     2   21   20 1 
     3   13   12 1 
     4    6    5 1 
     5   14   12 1 
     6   14   15 1 
     7   16   12 1 
     8   16    5 1 
     9   16   18 1 
    10   20    5 1 
    11   20   22 1 
    12   20   23 1 
    13   12    8 1 
    14    5    7 1 
    15    2    1 1 
    16   19   18 1 
    17    7    1 1 
    18    8    1 1 
    19    8   10 1 
    20    8    9 1 
    21    1    3 1 
    22   10   11 1 
    23    3    4 1 
