@<TRIPOS>MOLECULE
C:\Users\Praveer\PycharmProjects\pdb_to_mol2_converter\data\pdb\bdfucf.pdb
   23    23     0     0     0
SMALL
GASTEIGER

@<TRIPOS>ATOM
      1 O4          1.5630    0.3370    0.5840 O.3       1 BDF1        0.0000
      2 C1          2.0210    1.5130   -0.0740 C.3       1 BDF1        0.0000
      3 H1          2.8910    1.9060    0.4960 H         1 BDF1        0.0000
      4 O1          2.4250    1.2650   -1.3860 O.3       1 BDF1        0.0000
      5 HO1         1.6230    1.0190   -1.8620 H         1 BDF1        0.0000
      6 C4          0.1890    0.1310    0.2190 C.3       1 BDF1        0.0000
      7 H4          0.2070   -0.6190   -0.6060 H         1 BDF1        0.0000
      8 C2          0.8220    2.4680   -0.0380 C.3       1 BDF1        0.0000
      9 H2          0.8910    3.2500   -0.8270 H         1 BDF1        0.0000
     10 O2          0.6840    3.1340    1.2100 O.3       1 BDF1        0.0000
     11 HO2         1.1460    3.9740    1.1960 H         1 BDF1        0.0000
     12 C3         -0.3320    1.4900   -0.3000 C.3       1 BDF1        0.0000
     13 H3         -1.2610    1.8100    0.2200 H         1 BDF1        0.0000
     14 O3         -0.5950    1.4170   -1.6830 O.3       1 BDF1        0.0000
     15 HO3        -1.5440    1.3310   -1.8250 H         1 BDF1        0.0000
     16 C5         -0.5850   -0.4800    1.3730 C.3       1 BDF1        0.0000
     17 H5         -0.1250   -1.4630    1.6400 H         1 BDF1        0.0000
     18 O5         -1.9490   -0.6880    1.0170 O.3       1 BDF1        0.0000
     19 HO5        -1.9830   -1.4820    0.4740 H         1 BDF1        0.0000
     20 C6         -0.5500    0.4180    2.6190 C.3       1 BDF1        0.0000
     21 H61        -1.0120    1.4050    2.4120 H         1 BDF1        0.0000
     22 H62         0.4990    0.5830    2.9410 H         1 BDF1        0.0000
     23 H63        -1.1080   -0.0550    3.4550 H         1 BDF1        0.0000
@<TRIPOS>BOND
     1    5    4 1 
     2   15   14 1 
     3   14   12 1 
     4    4    2 1 
     5    9    8 1 
     6    7    6 1 
     7   12    8 1 
     8   12    6 1 
     9   12   13 1 
    10    2    8 1 
    11    2    3 1 
    12    2    1 1 
    13    8   10 1 
    14    6    1 1 
    15    6   16 1 
    16   19   18 1 
    17   18   16 1 
    18   11   10 1 
    19   16   17 1 
    20   16   20 1 
    21   21   20 1 
    22   20   22 1 
    23   20   23 1 
