@<TRIPOS>MOLECULE
C:\Users\Praveer\PycharmProjects\pdb_to_mol2_converter\data\pdb\bdg.pdb
   54    54     0     0     0
SMALL
GASTEIGER

@<TRIPOS>ATOM
      1 2C1         1.5030    0.0280    0.0900 C.3       1 BDG1        0.0000
      2 2H1         1.8520   -0.4000    1.0580 H         1 BDG1        0.0000
      3 2O1         2.0440   -0.7080   -0.9780 O.3       1 BDG1        0.0000
      4 2C5        -0.5070    0.7100    1.1640 C.3       1 BDG1        0.0000
      5 2H5        -0.1520    0.2090    2.0980 H         1 BDG1        0.0000
      6 2O5         0.0730    0.0550    0.0200 O.3       1 BDG1        0.0000
      7 2C2         1.9710    1.4580   -0.0470 C.3       1 BDG1        0.0000
      8 2H2         1.5420    1.8760   -0.9900 H         1 BDG1        0.0000
      9 2O2         3.3970    1.5470   -0.1400 O.3       1 BDG1        0.0000
     10 2HO2        3.6860    1.0090   -0.8890 H         1 BDG1        0.0000
     11 2C3         1.4440    2.2660    1.1230 C.3       1 BDG1        0.0000
     12 2H3         1.8630    1.8320    2.0650 H         1 BDG1        0.0000
     13 2O3         1.8720    3.6240    1.0550 O.3       1 BDG1        0.0000
     14 2HO3        2.8140    3.6090    0.8370 H         1 BDG1        0.0000
     15 2C4        -0.0660    2.1670    1.1820 C.3       1 BDG1        0.0000
     16 2H4        -0.4890    2.6680    0.2770 H         1 BDG1        0.0000
     17 2O4        -0.5770    2.8260    2.3320 O.3       1 BDG1        0.0000
     18 2HO4       -0.1380    3.6860    2.3830 H         1 BDG1        0.0000
     19 2C6        -2.0100    0.5440    1.0900 C.3       1 BDG1        0.0000
     20 2H61       -2.4070    1.0630    0.1880 H         1 BDG1        0.0000
     21 2H62       -2.4880    1.0020    1.9860 H         1 BDG1        0.0000
     22 2O6        -2.3760   -0.8350    1.0370 O.3       1 BDG1        0.0000
     23 2HO6       -1.9740   -1.2260    0.2530 H         1 BDG1        0.0000
     24 C1          1.8310   -2.1010   -0.7970 C.3       1 BDG1        0.0000
     25 H11         0.7400   -2.3120   -0.7260 H         1 BDG1        0.0000
     26 H12         2.3160   -2.4360    0.1470 H         1 BDG1        0.0000
     27 C2          2.4280   -2.8910   -1.9660 C.3       1 BDG1        0.0000
     28 H21         3.4910   -2.5890   -2.0990 H         1 BDG1        0.0000
     29 H22         1.8820   -2.6260   -2.8990 H         1 BDG1        0.0000
     30 C3          2.3630   -4.4080   -1.7410 C.3       1 BDG1        0.0000
     31 H31         1.3040   -4.7160   -1.5890 H         1 BDG1        0.0000
     32 H32         2.9220   -4.6550   -0.8090 H         1 BDG1        0.0000
     33 C4          2.9600   -5.2160   -2.9000 C.3       1 BDG1        0.0000
     34 H41         4.0070   -4.8810   -3.0750 H         1 BDG1        0.0000
     35 H42         2.3790   -5.0180   -3.8290 H         1 BDG1        0.0000
     36 C5          2.9590   -6.7240   -2.6120 C.3       1 BDG1        0.0000
     37 H51         1.9080   -7.0720   -2.4950 H         1 BDG1        0.0000
     38 H52         3.4850   -6.9050   -1.6470 H         1 BDG1        0.0000
     39 C6          3.6490   -7.5510   -3.7040 C.3       1 BDG1        0.0000
     40 H61         4.7150   -7.2360   -3.7730 H         1 BDG1        0.0000
     41 H62         3.1700   -7.3490   -4.6880 H         1 BDG1        0.0000
     42 C7          3.5890   -9.0570   -3.4110 C.3       1 BDG1        0.0000
     43 H71         2.5320   -9.4010   -3.4750 H         1 BDG1        0.0000
     44 H72         3.9380   -9.2320   -2.3680 H         1 BDG1        0.0000
     45 C8          4.4580   -9.8900   -4.3610 C.3       1 BDG1        0.0000
     46 H81         5.5090   -9.5290   -4.2950 H         1 BDG1        0.0000
     47 H82         4.1130   -9.7400   -5.4090 H         1 BDG1        0.0000
     48 C9          4.4270  -11.3870   -4.0250 C.3       1 BDG1        0.0000
     49 H91         3.3890  -11.7660   -4.1730 H         1 BDG1        0.0000
     50 H92         4.6790  -11.5160   -2.9480 H         1 BDG1        0.0000
     51 C10         5.3970  -12.2220   -4.8640 C.3       1 BDG1        0.0000
     52 H101        6.4450  -11.9040   -4.6730 H         1 BDG1        0.0000
     53 H102        5.1850  -12.0940   -5.9470 H         1 BDG1        0.0000
     54 H103        5.3070  -13.3000   -4.6100 H         1 BDG1        0.0000
@<TRIPOS>BOND
     1   53   51 1 
     2   47   45 1 
     3   51   52 1 
     4   51   54 1 
     5   51   48 1 
     6   41   39 1 
     7   45   46 1 
     8   45   48 1 
     9   45   42 1 
    10   49   48 1 
    11   48   50 1 
    12   35   33 1 
    13   40   39 1 
    14   39   42 1 
    15   39   36 1 
    16   43   42 1 
    17   42   44 1 
    18   34   33 1 
    19   33   36 1 
    20   33   30 1 
    21   29   27 1 
    22   36   37 1 
    23   36   38 1 
    24   28   27 1 
    25   27   30 1 
    26   27   24 1 
    27   30   31 1 
    28   30   32 1 
    29    8    7 1 
    30    3   24 1 
    31    3    1 1 
    32   10    9 1 
    33   24   25 1 
    34   24   26 1 
    35    9    7 1 
    36    7    1 1 
    37    7   11 1 
    38    6    1 1 
    39    6    4 1 
    40    1    2 1 
    41   20   19 1 
    42   23   22 1 
    43   16   15 1 
    44   14   13 1 
    45   22   19 1 
    46   13   11 1 
    47   19    4 1 
    48   19   21 1 
    49   11   15 1 
    50   11   12 1 
    51    4   15 1 
    52    4    5 1 
    53   15   17 1 
    54   17   18 1 
