@<TRIPOS>MOLECULE
C:\Users\Praveer\PycharmProjects\pdb_to_mol2_converter\data\pdb\bdha.pdb
   23    23     0     0     0
SMALL
GASTEIGER

@<TRIPOS>ATOM
      1 C1          2.0930    1.4830    0.0120 C.2       1 BDH1        0.0000
      2 O11         1.4000    2.3070    0.6790 O.co2     1 BDH1        0.0000
      3 O12         2.9960    1.7460   -0.8360 O.co2     1 BDH1        0.0000
      4 C2          1.5260    0.0090   -0.0270 C.3       1 BDH1        0.0000
      5 O2          2.0670   -0.6780   -1.1260 O.3       1 BDH1        0.0000
      6 HO2         2.7420   -0.0230   -1.3660 H         1 BDH1        0.0000
      7 C6          1.5540   -2.0190    1.3100 C.3       1 BDH1        0.0000
      8 H6          1.9110   -2.6260    0.4530 H         1 BDH1        0.0000
      9 O6          2.0340   -0.6500    1.1530 O.3       1 BDH1        0.0000
     10 C3         -0.0030   -0.0270   -0.0590 C.3       1 BDH1        0.0000
     11 H31        -0.3680    0.4340   -1.0040 H         1 BDH1        0.0000
     12 H32        -0.3800    0.6090    0.7750 H         1 BDH1        0.0000
     13 C4         -0.5510   -1.4050    0.0970 C.3       1 BDH1        0.0000
     14 H4         -0.2640   -2.0320   -0.7840 H         1 BDH1        0.0000
     15 O4         -1.9700   -1.3300    0.1620 O.3       1 BDH1        0.0000
     16 HO4        -2.2010   -1.7410    1.0170 H         1 BDH1        0.0000
     17 C5          0.0180   -2.0290    1.3570 C.3       1 BDH1        0.0000
     18 H5         -0.2810   -1.3740    2.2110 H         1 BDH1        0.0000
     19 O5         -0.5340   -3.3330    1.5790 O.3       1 BDH1        0.0000
     20 HO5         0.1970   -3.8420    2.0050 H         1 BDH1        0.0000
     21 C7          2.1040   -2.7430    2.5590 C.2       1 BDH1        0.0000
     22 O71         2.7150   -2.0850    3.4350 O.co2     1 BDH1        0.0000
     23 O72         1.8190   -3.9790    2.5630 O.co2     1 BDH1        0.0000
@<TRIPOS>BOND
     1    6    5 1 
     2    5    4 1 
     3   11   10 1 
     4    3    1 ar
     5   14   13 1 
     6   10    4 1 
     7   10   13 1 
     8   10   12 1 
     9    4    1 1 
    10    4    9 1 
    11    1    2 ar
    12   13   15 1 
    13   13   17 1 
    14   15   16 1 
    15    8    7 1 
    16    9    7 1 
    17    7   17 1 
    18    7   21 1 
    19   17   19 1 
    20   17   18 1 
    21   19   20 1 
    22   21   23 ar
    23   21   22 ar
