@<TRIPOS>MOLECULE
C:\Users\Praveer\PycharmProjects\pdb_to_mol2_converter\data\pdb\bdhep.pdb
   28    28     0     0     0
SMALL
GASTEIGER

@<TRIPOS>ATOM
      1 C1          1.3420    0.0130    0.0560 C.3       1 BDH1        0.0000
      2 H1          1.6940   -0.5020    0.9790 H         1 BDH1        0.0000
      3 O1          1.7480   -0.7460   -1.0420 O.3       1 BDH1        0.0000
      4 HO1         1.2750   -0.3700   -1.7890 H         1 BDH1        0.0000
      5 C5         -0.5920    0.7600    1.2170 C.3       1 BDH1        0.0000
      6 H5         -0.2400    0.2250    2.1310 H         1 BDH1        0.0000
      7 O5         -0.0810    0.0850    0.0550 O.3       1 BDH1        0.0000
      8 C2          1.9410    1.4140   -0.0210 C.3       1 BDH1        0.0000
      9 H2          3.0520    1.3150    0.0620 H         1 BDH1        0.0000
     10 O2          1.6590    2.1150   -1.2430 O.3       1 BDH1        0.0000
     11 HO2         2.3480    1.9340   -1.8920 H         1 BDH1        0.0000
     12 C3          1.4570    2.1990    1.1810 C.3       1 BDH1        0.0000
     13 H3          1.8340    1.6920    2.1030 H         1 BDH1        0.0000
     14 O3          1.9830    3.5250    1.1930 O.3       1 BDH1        0.0000
     15 HO3         1.9180    3.8670    0.2910 H         1 BDH1        0.0000
     16 C4         -0.0600    2.1960    1.2410 C.3       1 BDH1        0.0000
     17 H4         -0.4530    2.7230    0.3380 H         1 BDH1        0.0000
     18 O4         -0.5130    2.8980    2.3940 O.3       1 BDH1        0.0000
     19 HO4         0.0670    3.6670    2.5010 H         1 BDH1        0.0000
     20 C6         -2.1110    0.6610    1.1690 C.3       1 BDH1        0.0000
     21 H6         -2.4810    1.2530    0.2980 H         1 BDH1        0.0000
     22 O6         -2.6810    1.1920    2.3730 O.3       1 BDH1        0.0000
     23 HO6        -2.1170    1.9550    2.5940 H         1 BDH1        0.0000
     24 C7         -2.5610   -0.7810    1.0180 C.3       1 BDH1        0.0000
     25 H71        -2.2450   -1.3800    1.9020 H         1 BDH1        0.0000
     26 H72        -2.1180   -1.2420    0.1080 H         1 BDH1        0.0000
     27 O7         -3.9850   -0.8300    0.8960 O.3       1 BDH1        0.0000
     28 HO7        -4.2930   -0.2270    1.5870 H         1 BDH1        0.0000
@<TRIPOS>BOND
     1   11   10 1 
     2    4    3 1 
     3   10    8 1 
     4    3    1 1 
     5    8    1 1 
     6    8    9 1 
     7    8   12 1 
     8    7    1 1 
     9    7    5 1 
    10    1    2 1 
    11   26   24 1 
    12   15   14 1 
    13   21   20 1 
    14   17   16 1 
    15   27   24 1 
    16   27   28 1 
    17   24   20 1 
    18   24   25 1 
    19   20    5 1 
    20   20   22 1 
    21   12   14 1 
    22   12   16 1 
    23   12   13 1 
    24    5   16 1 
    25    5    6 1 
    26   16   18 1 
    27   22   23 1 
    28   18   19 1 
