@<TRIPOS>MOLECULE
C:\Users\Praveer\PycharmProjects\pdb_to_mol2_converter\data\pdb\bdig.pdb
   22    22     0     0     0
SMALL
GASTEIGER

@<TRIPOS>ATOM
      1 C1          1.3480    0.0170   -0.0350 C.3       1 BDI1        0.0000
      2 H1          1.7610   -0.5620    0.8270 H         1 BDI1        0.0000
      3 O1          1.7170   -0.6500   -1.1940 O.3       1 BDI1        0.0000
      4 HO1         1.2080   -0.2410   -1.8950 H         1 BDI1        0.0000
      5 C5         -0.5420    0.5120    1.2940 C.3       1 BDI1        0.0000
      6 H5         -0.1080   -0.1170    2.1060 H         1 BDI1        0.0000
      7 O5         -0.0720    0.0390    0.0260 O.3       1 BDI1        0.0000
      8 C2          1.7940    1.4380    0.0100 C.3       1 BDI1        0.0000
      9 H21         1.3450    1.9880   -0.8490 H         1 BDI1        0.0000
     10 H22         2.9010    1.4840   -0.1130 H         1 BDI1        0.0000
     11 C3          1.3850    2.0980    1.2880 C.3       1 BDI1        0.0000
     12 H3          1.6310    3.1880    1.2480 H         1 BDI1        0.0000
     13 O3          2.1260    1.5210    2.3550 O.3       1 BDI1        0.0000
     14 HO3         2.9750    1.9670    2.4430 H         1 BDI1        0.0000
     15 C4         -0.1130    1.9610    1.4920 C.3       1 BDI1        0.0000
     16 H4         -0.6290    2.5690    0.7120 H         1 BDI1        0.0000
     17 O4         -0.5200    2.4540    2.7640 O.3       1 BDI1        0.0000
     18 HO4         0.0920    2.0870    3.4130 H         1 BDI1        0.0000
     19 C6         -2.0690    0.3180    1.2960 C.3       1 BDI1        0.0000
     20 H61        -2.5000    0.6490    2.2640 H         1 BDI1        0.0000
     21 H62        -2.3180   -0.7520    1.1390 H         1 BDI1        0.0000
     22 H63        -2.5310    0.9110    0.4790 H         1 BDI1        0.0000
@<TRIPOS>BOND
     1    4    3 1 
     2    3    1 1 
     3    9    8 1 
     4   10    8 1 
     5    1    8 1 
     6    1    7 1 
     7    1    2 1 
     8    8   11 1 
     9    7    5 1 
    10   22   19 1 
    11   16   15 1 
    12   21   19 1 
    13   12   11 1 
    14   11   15 1 
    15   11   13 1 
    16    5   19 1 
    17    5   15 1 
    18    5    6 1 
    19   19   20 1 
    20   15   17 1 
    21   13   14 1 
    22   17   18 1 
