@<TRIPOS>MOLECULE
C:\Users\Praveer\PycharmProjects\pdb_to_mol2_converter\data\pdb\bdm.pdb
   75    76     0     0     0
SMALL
GASTEIGER

@<TRIPOS>ATOM
      1 1C1         2.0480    2.0470    1.3160 C.3       1 BDM1        0.0000
      2 1H1         0.9940    2.3290    1.5350 H         1 BDM1        0.0000
      3 1C5         3.9730    1.0390    2.3320 C.3       1 BDM1        0.0000
      4 1H5         4.1370    0.4380    1.4100 H         1 BDM1        0.0000
      5 1O5         2.5770    1.3610    2.4600 O.3       1 BDM1        0.0000
      6 1C2         2.8140    3.3400    1.0970 C.3       1 BDM1        0.0000
      7 1H2         2.6320    3.9840    1.9930 H         1 BDM1        0.0000
      8 1O2         2.3360    4.0590   -0.0450 O.3       1 BDM1        0.0000
      9 1HO2        2.1920    3.4360   -0.7680 H         1 BDM1        0.0000
     10 1C3         4.3070    3.0970    1.0100 C.3       1 BDM1        0.0000
     11 1H3         4.5140    2.4850    0.0970 H         1 BDM1        0.0000
     12 1O3         5.0200    4.3270    0.8760 O.3       1 BDM1        0.0000
     13 1HO3        4.4950    4.9010    0.3030 H         1 BDM1        0.0000
     14 1C4         4.7770    2.3210    2.2200 C.3       1 BDM1        0.0000
     15 1H4         4.6040    2.9320    3.1380 H         1 BDM1        0.0000
     16 1O4         6.1660    2.0360    2.1350 O.3       1 BDM1        0.0000
     17 1HO4        6.6030    2.8540    1.8630 H         1 BDM1        0.0000
     18 1C6         4.3590    0.1740    3.5130 C.3       1 BDM1        0.0000
     19 1H61        4.2230    0.7400    4.4620 H         1 BDM1        0.0000
     20 1H62        5.4310   -0.1190    3.4360 H         1 BDM1        0.0000
     21 1O6         3.5700   -1.0160    3.5550 O.3       1 BDM1        0.0000
     22 1HO6        2.6490   -0.7640    3.6820 H         1 BDM1        0.0000
     23 2C1         0.1070   -2.0750   -1.3280 C.3       1 BDM1        0.0000
     24 2H1        -0.1040   -1.4810   -2.2460 H         1 BDM1        0.0000
     25 2O1        -0.4300   -3.3680   -1.4540 O.3       1 BDM1        0.0000
     26 2C5         2.0890   -0.8100   -0.9920 C.3       1 BDM1        0.0000
     27 2H5         1.8610   -0.2640   -1.9400 H         1 BDM1        0.0000
     28 2O5         1.5100   -2.1250   -1.0500 O.3       1 BDM1        0.0000
     29 2C2        -0.5430   -1.4340   -0.1260 C.3       1 BDM1        0.0000
     30 2H2        -0.2580   -2.0320    0.7740 H         1 BDM1        0.0000
     31 2O2        -1.9720   -1.4520   -0.2250 O.3       1 BDM1        0.0000
     32 2HO2       -2.2580   -2.3720   -0.3050 H         1 BDM1        0.0000
     33 2C3        -0.0190   -0.0220    0.0590 C.3       1 BDM1        0.0000
     34 2H3        -0.2980    0.5770   -0.8420 H         1 BDM1        0.0000
     35 2O3        -0.6410    0.5800    1.1850 O.3       1 BDM1        0.0000
     36 2HO3       -1.5800    0.3520    1.1340 H         1 BDM1        0.0000
     37 2C4         1.4950   -0.0270    0.1740 C.3       1 BDM1        0.0000
     38 2H4         1.7830   -0.5510    1.1170 H         1 BDM1        0.0000
     39 2O4         2.1030    1.2760    0.1320 O.3       1 BDM1        0.0000
     40 2C6         3.5910   -0.9740   -0.9050 C.3       1 BDM1        0.0000
     41 2H61        3.8640   -1.5340    0.0190 H         1 BDM1        0.0000
     42 2H62        4.0790    0.0250   -0.8610 H         1 BDM1        0.0000
     43 2O6         4.1070   -1.6620   -2.0430 O.3       1 BDM1        0.0000
     44 2HO6        3.7740   -2.5670   -2.0340 H         1 BDM1        0.0000
     45 C1         -0.0690   -3.9610   -2.6940 C.3       1 BDM1        0.0000
     46 H11         1.0390   -4.0430   -2.7700 H         1 BDM1        0.0000
     47 H12        -0.4340   -3.3290   -3.5350 H         1 BDM1        0.0000
     48 C2         -0.6940   -5.3550   -2.8180 C.3       1 BDM1        0.0000
     49 H21        -1.7880   -5.2770   -2.6290 H         1 BDM1        0.0000
     50 H22        -0.2630   -6.0170   -2.0340 H         1 BDM1        0.0000
     51 C3         -0.4690   -5.9780   -4.2030 C.3       1 BDM1        0.0000
     52 H31         0.6240   -6.0390   -4.4070 H         1 BDM1        0.0000
     53 H32        -0.9200   -5.3110   -4.9730 H         1 BDM1        0.0000
     54 C4         -1.0830   -7.3770   -4.3480 C.3       1 BDM1        0.0000
     55 H41        -2.1710   -7.3240   -4.1200 H         1 BDM1        0.0000
     56 H42        -0.6140   -8.0670   -3.6120 H         1 BDM1        0.0000
     57 C5         -0.8950   -7.9390   -5.7640 C.3       1 BDM1        0.0000
     58 H51         0.1930   -8.0290   -5.9810 H         1 BDM1        0.0000
     59 H52        -1.3250   -7.2160   -6.4950 H         1 BDM1        0.0000
     60 C6         -1.5680   -9.3020   -5.9720 C.3       1 BDM1        0.0000
     61 H61        -2.6580   -9.1960   -5.7720 H         1 BDM1        0.0000
     62 H62        -1.1610  -10.0380   -5.2440 H         1 BDM1        0.0000
     63 C7         -1.3680   -9.8320   -7.3990 C.3       1 BDM1        0.0000
     64 H71        -0.2940  -10.0820   -7.5500 H         1 BDM1        0.0000
     65 H72        -1.6310   -9.0280   -8.1230 H         1 BDM1        0.0000
     66 C8         -2.2320  -11.0620   -7.7090 C.3       1 BDM1        0.0000
     67 H81        -3.3040  -10.7850   -7.5890 H         1 BDM1        0.0000
     68 H82        -2.0070  -11.8700   -6.9780 H         1 BDM1        0.0000
     69 C9         -2.0110  -11.5910   -9.1330 C.3       1 BDM1        0.0000
     70 H91        -0.9660  -11.9700   -9.2150 H         1 BDM1        0.0000
     71 H92        -2.1150  -10.7440   -9.8490 H         1 BDM1        0.0000
     72 C10        -2.9900  -12.6990   -9.5290 C.3       1 BDM1        0.0000
     73 H101       -4.0330  -12.3170   -9.5150 H         1 BDM1        0.0000
     74 H102       -2.9200  -13.5540   -8.8220 H         1 BDM1        0.0000
     75 H103       -2.7670  -13.0690  -10.5530 H         1 BDM1        0.0000
@<TRIPOS>BOND
     1   75   72 1 
     2   71   69 1 
     3   72   73 1 
     4   72   69 1 
     5   72   74 1 
     6   70   69 1 
     7   69   66 1 
     8   65   63 1 
     9   66   67 1 
    10   66   63 1 
    11   66   68 1 
    12   64   63 1 
    13   63   60 1 
    14   59   57 1 
    15   58   57 1 
    16   60   61 1 
    17   60   57 1 
    18   60   62 1 
    19   57   54 1 
    20   53   51 1 
    21   52   51 1 
    22   54   51 1 
    23   54   55 1 
    24   54   56 1 
    25   51   48 1 
    26   47   45 1 
    27   48   45 1 
    28   48   49 1 
    29   48   50 1 
    30   46   45 1 
    31   45   25 1 
    32   24   23 1 
    33   43   44 1 
    34   43   40 1 
    35   27   26 1 
    36   25   23 1 
    37   23   28 1 
    38   23   29 1 
    39   28   26 1 
    40   26   40 1 
    41   26   37 1 
    42   40   42 1 
    43   40   41 1 
    44   34   33 1 
    45    9    8 1 
    46   32   31 1 
    47   31   29 1 
    48   29   33 1 
    49   29   30 1 
    50    8    6 1 
    51   33   37 1 
    52   33   35 1 
    53   11   10 1 
    54   39   37 1 
    55   39    1 1 
    56   37   38 1 
    57   13   12 1 
    58   12   10 1 
    59   10    6 1 
    60   10   14 1 
    61    6    1 1 
    62    6    7 1 
    63   36   35 1 
    64    1    2 1 
    65    1    5 1 
    66    4    3 1 
    67   17   16 1 
    68   16   14 1 
    69   14    3 1 
    70   14   15 1 
    71    3    5 1 
    72    3   18 1 
    73   20   18 1 
    74   18   21 1 
    75   18   19 1 
    76   21   22 1 
