@<TRIPOS>MOLECULE
C:\Users\Praveer\PycharmProjects\pdb_to_mol2_converter\data\pdb\bdpsi.pdb
   24    24     0     0     0
SMALL
GASTEIGER

@<TRIPOS>ATOM
      1 O5          1.4210   -0.0190   -0.1090 O.3       1 BDP1        0.0000
      2 C2          1.9160    1.3180   -0.0870 C.3       1 BDP1        0.0000
      3 O2          2.2410    1.7940   -1.3600 O.3       1 BDP1        0.0000
      4 HO2         3.1070    2.2020   -1.2490 H         1 BDP1        0.0000
      5 C5         -0.0100    0.0060    0.0360 C.3       1 BDP1        0.0000
      6 H5         -0.2310   -0.4130    1.0460 H         1 BDP1        0.0000
      7 C6         -0.6190   -0.8640   -1.0350 C.3       1 BDP1        0.0000
      8 H61        -0.3150   -0.4870   -2.0380 H         1 BDP1        0.0000
      9 H62        -1.7290   -0.8280   -0.9720 H         1 BDP1        0.0000
     10 O6         -0.1960   -2.2200   -0.9040 O.3       1 BDP1        0.0000
     11 HO6         0.7690   -2.2360   -0.9030 H         1 BDP1        0.0000
     12 C1          3.1990    1.2780    0.7400 C.3       1 BDP1        0.0000
     13 H11         3.9280    0.6030    0.2360 H         1 BDP1        0.0000
     14 H12         2.9910    0.8330    1.7390 H         1 BDP1        0.0000
     15 O1          3.8160    2.5650    0.9080 O.3       1 BDP1        0.0000
     16 HO1         3.3080    3.0770    1.5530 H         1 BDP1        0.0000
     17 C3          0.7990    2.2000    0.5180 C.3       1 BDP1        0.0000
     18 H3          0.8550    3.2520    0.1750 H         1 BDP1        0.0000
     19 O3          0.7880    2.1860    1.9350 O.3       1 BDP1        0.0000
     20 HO3        -0.1200    1.9650    2.1890 H         1 BDP1        0.0000
     21 C4         -0.4370    1.4770   -0.0510 C.3       1 BDP1        0.0000
     22 H4         -0.6040    1.7660   -1.1120 H         1 BDP1        0.0000
     23 O4         -1.6120    1.6650    0.7130 O.3       1 BDP1        0.0000
     24 HO4        -2.2020    2.2920    0.2790 H         1 BDP1        0.0000
@<TRIPOS>BOND
     1    8    7 1 
     2    3    4 1 
     3    3    2 1 
     4   22   21 1 
     5    7    9 1 
     6    7   10 1 
     7    7    5 1 
     8   10   11 1 
     9    1    2 1 
    10    1    5 1 
    11    2   17 1 
    12    2   12 1 
    13   21    5 1 
    14   21   17 1 
    15   21   23 1 
    16    5    6 1 
    17   18   17 1 
    18   13   12 1 
    19   24   23 1 
    20   17   19 1 
    21   12   15 1 
    22   12   14 1 
    23   15   16 1 
    24   19   20 1 
