@<TRIPOS>MOLECULE
C:\Users\Praveer\PycharmProjects\pdb_to_mol2_converter\data\pdb\bdrhm.pdb
   23    23     0     0     0
SMALL
GASTEIGER

@<TRIPOS>ATOM
      1 C1          1.6270   -1.9100    1.4220 C.3       1 BDR1        0.0000
      2 H1          1.9940   -2.5350    0.5780 H         1 BDR1        0.0000
      3 O1          2.1930   -2.3990    2.5990 O.3       1 BDR1        0.0000
      4 HO1         1.7920   -1.8520    3.2820 H         1 BDR1        0.0000
      5 C5          1.5500   -0.0230   -0.0070 C.3       1 BDR1        0.0000
      6 H5          1.9950   -0.6080   -0.8460 H         1 BDR1        0.0000
      7 O5          2.0230   -0.5530    1.2340 O.3       1 BDR1        0.0000
      8 C2          0.1090   -1.9910    1.5230 C.3       1 BDR1        0.0000
      9 H2         -0.1730   -3.0650    1.6450 H         1 BDR1        0.0000
     10 O2         -0.4340   -1.2760    2.6400 O.3       1 BDR1        0.0000
     11 HO2        -1.3870   -1.2150    2.5060 H         1 BDR1        0.0000
     12 C3         -0.4800   -1.4970    0.2150 C.3       1 BDR1        0.0000
     13 H3         -0.1170   -2.1770   -0.5950 H         1 BDR1        0.0000
     14 O3         -1.9050   -1.5600    0.2230 O.3       1 BDR1        0.0000
     15 HO3        -2.2220   -1.5420   -0.6870 H         1 BDR1        0.0000
     16 C4          0.0240   -0.0960   -0.0880 C.3       1 BDR1        0.0000
     17 H4         -0.3750    0.6000    0.6890 H         1 BDR1        0.0000
     18 O4         -0.4340    0.3480   -1.3640 O.3       1 BDR1        0.0000
     19 HO4        -1.1470    0.9750   -1.2480 H         1 BDR1        0.0000
     20 C6          2.0970    1.4140   -0.0760 C.3       1 BDR1        0.0000
     21 H61         1.8220    1.8950   -1.0370 H         1 BDR1        0.0000
     22 H62         3.2040    1.4060    0.0140 H         1 BDR1        0.0000
     23 H63         1.6870    2.0180    0.7600 H         1 BDR1        0.0000
@<TRIPOS>BOND
     1   18   19 1 
     2   18   16 1 
     3   21   20 1 
     4    6    5 1 
     5   15   14 1 
     6   13   12 1 
     7   16    5 1 
     8   16   12 1 
     9   16   17 1 
    10   20    5 1 
    11   20   22 1 
    12   20   23 1 
    13    5    7 1 
    14   12   14 1 
    15   12    8 1 
    16    2    1 1 
    17    7    1 1 
    18    1    8 1 
    19    1    3 1 
    20    8    9 1 
    21    8   10 1 
    22   11   10 1 
    23    3    4 1 
