@<TRIPOS>MOLECULE
C:\Users\Praveer\PycharmProjects\pdb_to_mol2_converter\data\pdb\bdwg.pdb
   24    26     0     0     0
SMALL
GASTEIGER

@<TRIPOS>ATOM
      1 N9          1.3820    0.0070    0.0030 N.ar      1 BDW1        0.0000
      2 C8          1.7510    1.3350   -0.0010 C.ar      1 BDW1        0.0000
      3 H8          2.7960    1.6470   -0.0010 H         1 BDW1        0.0000
      4 N7          0.7170    2.1630   -0.0040 N.ar      1 BDW1        0.0000
      5 C5         -0.4070    1.3410   -0.0020 C.ar      1 BDW1        0.0000
      6 C6         -1.7940    1.6660   -0.0060 C.ar      1 BDW1        0.0000
      7 O6         -2.2620    2.8140   -0.0060 O.2       1 BDW1        0.0000
      8 N1         -2.6400    0.5110   -0.0210 N.ar      1 BDW1        0.0000
      9 C2         -2.2030   -0.8230   -0.0200 C.ar      1 BDW1        0.0000
     10 N2         -3.2300   -1.6830   -0.0520 N.ar      1 BDW1        0.0000
     11 N3         -0.8580   -1.0780    0.0090 N.ar      1 BDW1        0.0000
     12 H3         -0.5750   -2.0420   -0.0310 H         1 BDW1        0.0000
     13 C4          0.0040    0.0040    0.0020 C.ar      1 BDW1        0.0000
     14 C12        -4.0180    0.4420   -0.0540 C.ar      1 BDW1        0.0000
     15 H12        -4.6560    1.3170   -0.0630 H         1 BDW1        0.0000
     16 C11        -4.3570   -0.8770   -0.0720 C.ar      1 BDW1        0.0000
     17 C10        -5.6910   -1.5260   -0.1080 C.3       1 BDW1        0.0000
     18 H101       -5.8120   -2.1690    0.7880 H         1 BDW1        0.0000
     19 H102       -5.7700   -2.1550   -1.0190 H         1 BDW1        0.0000
     20 H103       -6.4920   -0.7590   -0.1200 H         1 BDW1        0.0000
     21 CM          2.2510   -1.1780    0.0080 C.3       1 BDW1        0.0000
     22 HM1         3.3280   -0.8990    0.0090 H         1 BDW1        0.0000
     23 HM2         2.0640   -1.8050   -0.8920 H         1 BDW1        0.0000
     24 HM3         2.0600   -1.7990    0.9100 H         1 BDW1        0.0000
@<TRIPOS>BOND
     1   19   17 1 
     2   23   21 1 
     3   20   17 1 
     4   17   16 1 
     5   17   18 1 
     6   16   14 ar
     7   16   10 ar
     8   15   14 1 
     9   14    8 ar
    10   10    9 ar
    11   12   11 1 
    12    8    9 ar
    13    8    6 ar
    14    9   11 ar
    15    6    7 2 
    16    6    5 ar
    17    4    5 ar
    18    4    2 ar
    19    5   13 ar
    20    2    3 1 
    21    2    1 ar
    22   13    1 ar
    23   13   11 ar
    24    1   21 1 
    25   21   22 1 
    26   21   24 1 
