@<TRIPOS>MOLECULE
C:\Users\Praveer\PycharmProjects\pdb_to_mol2_converter\data\pdb\beh.pdb
   67    66     0     0     0
SMALL
GASTEIGER

@<TRIPOS>ATOM
      1 O1          0.0010   -0.0540    0.1020 O.co2     1 BEH1        0.0000
      2 O2          2.0530   -0.9090    0.0460 O.co2     1 BEH1        0.0000
      3 C1          1.2530    0.0610    0.0480 C.2       1 BEH1        0.0000
      4 C2          1.8070    1.4850   -0.0190 C.3       1 BEH1        0.0000
      5 H2R         1.4390    2.0220    0.8780 H         1 BEH1        0.0000
      6 H2S         1.3730    1.9610   -0.9220 H         1 BEH1        0.0000
      7 C3          3.3490    1.5390   -0.0780 C.3       1 BEH1        0.0000
      8 H3R         3.6950    0.9570   -0.9620 H         1 BEH1        0.0000
      9 H3S         3.7610    1.0400    0.8280 H         1 BEH1        0.0000
     10 C4          3.8850    2.9740   -0.1670 C.3       1 BEH1        0.0000
     11 H4R         3.5360    3.5450    0.7210 H         1 BEH1        0.0000
     12 H4S         3.4550    3.4560   -1.0730 H         1 BEH1        0.0000
     13 C5          5.4170    3.0270   -0.2410 C.3       1 BEH1        0.0000
     14 H5R         5.7530    2.4160   -1.1090 H         1 BEH1        0.0000
     15 H5S         5.8390    2.5660    0.6790 H         1 BEH1        0.0000
     16 C6          5.9570    4.4560   -0.3920 C.3       1 BEH1        0.0000
     17 H6R         5.6290    5.0660    0.4790 H         1 BEH1        0.0000
     18 H6S         5.5180    4.9110   -1.3090 H         1 BEH1        0.0000
     19 C7          7.4870    4.4940   -0.4960 C.3       1 BEH1        0.0000
     20 H7R         7.8050    3.8470   -1.3450 H         1 BEH1        0.0000
     21 H7S         7.9250    4.0680    0.4350 H         1 BEH1        0.0000
     22 C8          8.0370    5.9090   -0.7150 C.3       1 BEH1        0.0000
     23 H8R         7.7330    6.5590    0.1360 H         1 BEH1        0.0000
     24 H8S         7.5880    6.3320   -1.6420 H         1 BEH1        0.0000
     25 C9          9.5660    5.9280   -0.8470 C.3       1 BEH1        0.0000
     26 H9R         9.8650    5.2510   -1.6790 H         1 BEH1        0.0000
     27 H9S        10.0180    5.5310    0.0890 H         1 BEH1        0.0000
     28 C10        10.1240    7.3310   -1.1230 C.3       1 BEH1        0.0000
     29 H10R        9.8390    8.0100   -0.2890 H         1 BEH1        0.0000
     30 H10S        9.6630    7.7270   -2.0560 H         1 BEH1        0.0000
     31 C11        11.6500    7.3300   -1.2790 C.3       1 BEH1        0.0000
     32 H11R       11.9290    6.6290   -2.0980 H         1 BEH1        0.0000
     33 H11S       12.1120    6.9520   -0.3400 H         1 BEH1        0.0000
     34 C12        12.2210    8.7180   -1.5970 C.3       1 BEH1        0.0000
     35 H12R       11.9550    9.4220   -0.7770 H         1 BEH1        0.0000
     36 H12S       11.7550    9.0980   -2.5340 H         1 BEH1        0.0000
     37 C13        13.7460    8.6950   -1.7690 C.3       1 BEH1        0.0000
     38 H13R       14.0090    7.9780   -2.5790 H         1 BEH1        0.0000
     39 H13S       14.2130    8.3270   -0.8280 H         1 BEH1        0.0000
     40 C14        14.3290   10.0720   -2.1140 C.3       1 BEH1        0.0000
     41 H14R       14.0730   10.7910   -1.3040 H         1 BEH1        0.0000
     42 H14S       13.8610   10.4410   -3.0540 H         1 BEH1        0.0000
     43 C15        15.8520   10.0350   -2.2930 C.3       1 BEH1        0.0000
     44 H15R       16.1060    9.3090   -3.0980 H         1 BEH1        0.0000
     45 H15S       16.3200    9.6710   -1.3500 H         1 BEH1        0.0000
     46 C16        16.4430   11.4050   -2.6510 C.3       1 BEH1        0.0000
     47 H16R       16.1920   12.1330   -1.8460 H         1 BEH1        0.0000
     48 H16S       15.9760   11.7690   -3.5940 H         1 BEH1        0.0000
     49 C17        17.9660   11.3580   -2.8300 C.3       1 BEH1        0.0000
     50 H17R       18.2150   10.6270   -3.6320 H         1 BEH1        0.0000
     51 H17S       18.4310   10.9950   -1.8860 H         1 BEH1        0.0000
     52 C18        18.5650   12.7230   -3.1920 C.3       1 BEH1        0.0000
     53 H18R       18.3170   13.4550   -2.3900 H         1 BEH1        0.0000
     54 H18S       18.1020   13.0860   -4.1370 H         1 BEH1        0.0000
     55 C19        20.0890   12.6690   -3.3670 C.3       1 BEH1        0.0000
     56 H19R       20.3360   11.9360   -4.1690 H         1 BEH1        0.0000
     57 H19S       20.5510   12.3040   -2.4220 H         1 BEH1        0.0000
     58 C20        20.6940   14.0320   -3.7290 C.3       1 BEH1        0.0000
     59 H20R       20.4470   14.7650   -2.9280 H         1 BEH1        0.0000
     60 H20S       20.2340   14.3960   -4.6740 H         1 BEH1        0.0000
     61 C21        22.2180   13.9760   -3.9030 C.3       1 BEH1        0.0000
     62 H21R       22.4600   13.2370   -4.7010 H         1 BEH1        0.0000
     63 H21S       22.6730   13.6050   -2.9560 H         1 BEH1        0.0000
     64 C22        22.8390   15.3290   -4.2630 C.3       1 BEH1        0.0000
     65 H22R       22.6300   16.0760   -3.4680 H         1 BEH1        0.0000
     66 H22S       22.4170   15.7070   -5.2190 H         1 BEH1        0.0000
     67 H22T       23.9400   15.2360   -4.3780 H         1 BEH1        0.0000
@<TRIPOS>BOND
     1   66   64 1 
     2   62   61 1 
     3   60   58 1 
     4   67   64 1 
     5   64   61 1 
     6   64   65 1 
     7   56   55 1 
     8   54   52 1 
     9   61   58 1 
    10   61   63 1 
    11   58   55 1 
    12   58   59 1 
    13   50   49 1 
    14   48   46 1 
    15   55   52 1 
    16   55   57 1 
    17   52   49 1 
    18   52   53 1 
    19   44   43 1 
    20   42   40 1 
    21   49   46 1 
    22   49   51 1 
    23   46   43 1 
    24   46   47 1 
    25   38   37 1 
    26   36   34 1 
    27   43   40 1 
    28   43   45 1 
    29   40   37 1 
    30   40   41 1 
    31   32   31 1 
    32   30   28 1 
    33   37   34 1 
    34   37   39 1 
    35   26   25 1 
    36   24   22 1 
    37   34   31 1 
    38   34   35 1 
    39   20   19 1 
    40   18   16 1 
    41   31   28 1 
    42   31   33 1 
    43   28   25 1 
    44   28   29 1 
    45   14   13 1 
    46   12   10 1 
    47    8    7 1 
    48    6    4 1 
    49   25   22 1 
    50   25   27 1 
    51   22   19 1 
    52   22   23 1 
    53   19   16 1 
    54   19   21 1 
    55   16   13 1 
    56   16   17 1 
    57   13   10 1 
    58   13   15 1 
    59   10    7 1 
    60   10   11 1 
    61    7    4 1 
    62    7    9 1 
    63    4    3 1 
    64    4    5 1 
    65    2    3 ar
    66    3    1 ar
