@<TRIPOS>MOLECULE
C:\Users\Praveer\PycharmProjects\pdb_to_mol2_converter\data\pdb\behp.pdb
   68    67     0     0     0
SMALL
GASTEIGER

@<TRIPOS>ATOM
      1 H1          0.0260   -0.0870   -0.0590 H         1 BEH1        0.0000
      2 O1          0.9820   -0.0750   -0.0390 O.3       1 BEH1        0.0000
      3 O2          0.5420    2.1290   -0.0220 O.2       1 BEH1        0.0000
      4 C1          1.3750    1.2420   -0.0140 C.2       1 BEH1        0.0000
      5 C2          2.8900    1.4010    0.0240 C.3       1 BEH1        0.0000
      6 H2R         3.3170    0.9190   -0.8800 H         1 BEH1        0.0000
      7 H2S         3.2730    0.8720    0.9220 H         1 BEH1        0.0000
      8 C3          3.3090    2.8860    0.0750 C.3       1 BEH1        0.0000
      9 H3R         2.8450    3.3760    0.9620 H         1 BEH1        0.0000
     10 H3S         2.9350    3.4150   -0.8320 H         1 BEH1        0.0000
     11 C4          4.8310    3.0600    0.1610 C.3       1 BEH1        0.0000
     12 H4R         5.3080    2.5900   -0.7280 H         1 BEH1        0.0000
     13 H4S         5.2070    2.5330    1.0660 H         1 BEH1        0.0000
     14 C5          5.2460    4.5360    0.2350 C.3       1 BEH1        0.0000
     15 H5R         4.7360    5.0110    1.1030 H         1 BEH1        0.0000
     16 H5S         4.9040    5.0600   -0.6860 H         1 BEH1        0.0000
     17 C6          6.7620    4.7220    0.3890 C.3       1 BEH1        0.0000
     18 H6R         7.2810    4.2610   -0.4810 H         1 BEH1        0.0000
     19 H6S         7.1000    4.1900    1.3070 H         1 BEH1        0.0000
     20 C7          7.1600    6.2000    0.4930 C.3       1 BEH1        0.0000
     21 H7R         6.6070    6.6640    1.3410 H         1 BEH1        0.0000
     22 H7S         6.8520    6.7280   -0.4380 H         1 BEH1        0.0000
     23 C8          8.6650    6.4010    0.7140 C.3       1 BEH1        0.0000
     24 H8R         9.2260    5.9540   -0.1370 H         1 BEH1        0.0000
     25 H8S         8.9700    5.8660    1.6410 H         1 BEH1        0.0000
     26 C9          9.0410    7.8830    0.8450 C.3       1 BEH1        0.0000
     27 H9R         8.4520    8.3320    1.6770 H         1 BEH1        0.0000
     28 H9S         8.7610    8.4160   -0.0920 H         1 BEH1        0.0000
     29 C10        10.5350    8.1020    1.1220 C.3       1 BEH1        0.0000
     30 H10R       11.1310    7.6680    0.2880 H         1 BEH1        0.0000
     31 H10S       10.8140    7.5620    2.0550 H         1 BEH1        0.0000
     32 C11        10.8870    9.5870    1.2770 C.3       1 BEH1        0.0000
     33 H11R       10.2700   10.0210    2.0960 H         1 BEH1        0.0000
     34 H11S       10.6270   10.1240    0.3370 H         1 BEH1        0.0000
     35 C12        12.3700    9.8200    1.5960 C.3       1 BEH1        0.0000
     36 H12R       12.9920    9.3970    0.7760 H         1 BEH1        0.0000
     37 H12S       12.6300    9.2790    2.5330 H         1 BEH1        0.0000
     38 C13        12.7030   11.3080    1.7680 C.3       1 BEH1        0.0000
     39 H13R       12.0670   11.7310    2.5770 H         1 BEH1        0.0000
     40 H13S       12.4550   11.8480    0.8260 H         1 BEH1        0.0000
     41 C14        14.1790   11.5530    2.1130 C.3       1 BEH1        0.0000
     42 H14R       14.8180   11.1350    1.3040 H         1 BEH1        0.0000
     43 H14S       14.4260   11.0110    3.0540 H         1 BEH1        0.0000
     44 C15        14.4990   13.0430    2.2920 C.3       1 BEH1        0.0000
     45 H15R       13.8520   13.4590    3.0970 H         1 BEH1        0.0000
     46 H15S       14.2560   13.5830    1.3490 H         1 BEH1        0.0000
     47 C16        15.9700   13.2970    2.6510 C.3       1 BEH1        0.0000
     48 H16R       16.6180   12.8830    1.8460 H         1 BEH1        0.0000
     49 H16S       16.2130   12.7580    3.5940 H         1 BEH1        0.0000
     50 C17        16.2800   14.7900    2.8290 C.3       1 BEH1        0.0000
     51 H17R       15.6290   15.2030    3.6320 H         1 BEH1        0.0000
     52 H17S       16.0370   15.3270    1.8850 H         1 BEH1        0.0000
     53 C18        17.7490   15.0530    3.1910 C.3       1 BEH1        0.0000
     54 H18R       18.4010   14.6400    2.3890 H         1 BEH1        0.0000
     55 H18S       17.9930   14.5180    4.1360 H         1 BEH1        0.0000
     56 C19        18.0520   16.5470    3.3660 C.3       1 BEH1        0.0000
     57 H19R       17.3980   16.9600    4.1680 H         1 BEH1        0.0000
     58 H19S       17.8060   17.0820    2.4210 H         1 BEH1        0.0000
     59 C20        19.5190   16.8170    3.7270 C.3       1 BEH1        0.0000
     60 H20R       20.1730   16.4050    2.9260 H         1 BEH1        0.0000
     61 H20S       19.7660   16.2850    4.6730 H         1 BEH1        0.0000
     62 C21        19.8190   18.3120    3.9000 C.3       1 BEH1        0.0000
     63 H21R       19.1570   18.7190    4.6980 H         1 BEH1        0.0000
     64 H21S       19.5630   18.8400    2.9530 H         1 BEH1        0.0000
     65 C22        21.2780   18.6010    4.2600 C.3       1 BEH1        0.0000
     66 H22R       21.9560   18.2240    3.4650 H         1 BEH1        0.0000
     67 H22S       21.5480   18.1030    5.2160 H         1 BEH1        0.0000
     68 H22T       21.4430   19.6940    4.3740 H         1 BEH1        0.0000
@<TRIPOS>BOND
     1    6    5 1 
     2   10    8 1 
     3   12   11 1 
     4   16   14 1 
     5   18   17 1 
     6   22   20 1 
     7   24   23 1 
     8   28   26 1 
     9    1    2 1 
    10    2    4 1 
    11    3    4 2 
    12    4    5 1 
    13    5    8 1 
    14    5    7 1 
    15    8   11 1 
    16    8    9 1 
    17   11   14 1 
    18   11   13 1 
    19   14   17 1 
    20   14   15 1 
    21   30   29 1 
    22   34   32 1 
    23   17   20 1 
    24   17   19 1 
    25   20   23 1 
    26   20   21 1 
    27   23   26 1 
    28   23   25 1 
    29   36   35 1 
    30   40   38 1 
    31   26   29 1 
    32   26   27 1 
    33   29   32 1 
    34   29   31 1 
    35   32   35 1 
    36   32   33 1 
    37   42   41 1 
    38   46   44 1 
    39   35   38 1 
    40   35   37 1 
    41   38   41 1 
    42   38   39 1 
    43   48   47 1 
    44   52   50 1 
    45   41   44 1 
    46   41   43 1 
    47   44   47 1 
    48   44   45 1 
    49   54   53 1 
    50   58   56 1 
    51   47   50 1 
    52   47   49 1 
    53   50   53 1 
    54   50   51 1 
    55   60   59 1 
    56   64   62 1 
    57   53   56 1 
    58   53   55 1 
    59   56   59 1 
    60   56   57 1 
    61   66   65 1 
    62   59   62 1 
    63   59   61 1 
    64   62   65 1 
    65   62   63 1 
    66   65   68 1 
    67   65   67 1 
