@<TRIPOS>MOLECULE
C:\Users\Praveer\PycharmProjects\pdb_to_mol2_converter\data\pdb\benz.pdb
   12    12     0     0     0
SMALL
GASTEIGER

@<TRIPOS>ATOM
      1 CG         -0.0130   -0.0230   -0.0000 C.ar      1 BEN1        0.0000
      2 HG         -0.5530   -0.9590   -0.0000 H         1 BEN1        0.0000
      3 CD1         1.3880   -0.0230   -0.0000 C.ar      1 BEN1        0.0000
      4 HD1         1.9280   -0.9590   -0.0000 H         1 BEN1        0.0000
      5 CD2        -0.7140    1.1910   -0.0000 C.ar      1 BEN1        0.0000
      6 HD2        -1.7940    1.1910   -0.0000 H         1 BEN1        0.0000
      7 CE1         2.0890    1.1910    0.0000 C.ar      1 BEN1        0.0000
      8 HE1         3.1690    1.1910    0.0000 H         1 BEN1        0.0000
      9 CE2        -0.0130    2.4050    0.0000 C.ar      1 BEN1        0.0000
     10 HE2        -0.5540    3.3400    0.0000 H         1 BEN1        0.0000
     11 CZ          1.3880    2.4050    0.0000 C.ar      1 BEN1        0.0000
     12 HZ          1.9280    3.3400    0.0000 H         1 BEN1        0.0000
@<TRIPOS>BOND
     1    1    2 1 
     2    1    3 ar
     3    1    5 ar
     4    3    4 1 
     5    3    7 ar
     6    5    6 1 
     7    5    9 ar
     8    7    8 1 
     9    7   11 ar
    10    9   10 1 
    11    9   11 ar
    12   11   12 1 
