@<TRIPOS>MOLECULE
C:\Users\Praveer\PycharmProjects\pdb_to_mol2_converter\data\pdb\beon.pdb
   11    10     0     0     0
SMALL
GASTEIGER

@<TRIPOS>ATOM
      1 C1          1.1090   -0.0140   -0.0000 C.3       1 BEO1        0.0000
      2 H11        -0.0010   -0.0140    0.0000 H         1 BEO1        0.0000
      3 H12         1.4680   -0.5410    0.9080 H         1 BEO1        0.0000
      4 H13         1.4680   -0.5410   -0.9080 H         1 BEO1        0.0000
      5 C2          1.5900    1.4030    0.0000 C.2       1 BEO1        0.0000
      6 O2          0.7890    2.3350   -0.0000 O.2       1 BEO1        0.0000
      7 C3          3.0680    1.6140   -0.0000 C.2       1 BEO1        0.0000
      8 H3          3.7490    0.7500    0.0000 H         1 BEO1        0.0000
      9 C4          3.6240    2.8460   -0.0000 C.2       1 BEO1        0.0000
     10 H41         2.9850    3.7460   -0.0000 H         1 BEO1        0.0000
     11 H42         4.7160    2.9860    0.0000 H         1 BEO1        0.0000
@<TRIPOS>BOND
     1    4    1 1 
     2    1    2 1 
     3    1    5 1 
     4    1    3 1 
     5    5    6 2 
     6    5    7 1 
     7    7    8 1 
     8    7    9 2 
     9    9   10 1 
    10    9   11 1 
