@<TRIPOS>MOLECULE
C:\Users\Praveer\PycharmProjects\pdb_to_mol2_converter\data\pdb\bepa.pdb
   26    26     0     0     0
SMALL
GASTEIGER

@<TRIPOS>ATOM
      1 N1          1.3180   -0.0230   -0.0290 N.ar      1 BEP1        0.0000
      2 C2          2.0140    1.1100   -0.0120 C.ar      1 BEP1        0.0000
      3 H2          3.0940    1.0400   -0.0350 H         1 BEP1        0.0000
      4 C3          1.3800    2.3600    0.0290 C.ar      1 BEP1        0.0000
      5 H3          1.9570    3.2700    0.0420 H         1 BEP1        0.0000
      6 C4         -0.0230    2.3870    0.0560 C.ar      1 BEP1        0.0000
      7 H4         -0.5490    3.3290    0.0900 H         1 BEP1        0.0000
      8 C5         -0.7390    1.1740    0.0390 C.ar      1 BEP1        0.0000
      9 H5         -1.8160    1.1700    0.0620 H         1 BEP1        0.0000
     10 C6         -0.0080   -0.0190   -0.0000 C.ar      1 BEP1        0.0000
     11 N6         -0.6630   -1.2250   -0.0380 N.pl3     1 BEP1        0.0000
     12 H6         -1.6550   -1.2000   -0.2450 H         1 BEP1        0.0000
     13 C10         0.0350   -2.5300   -0.1930 C.3       1 BEP1        0.0000
     14 H101        0.9890   -2.5190    0.3820 H         1 BEP1        0.0000
     15 H102        0.3140   -2.6730   -1.2610 H         1 BEP1        0.0000
     16 C11        -0.8650   -3.6440    0.2820 C.2       1 BEP1        0.0000
     17 H11        -1.4440   -4.1290   -0.5160 H         1 BEP1        0.0000
     18 C12        -1.0660   -4.0570    1.5510 C.2       1 BEP1        0.0000
     19 C13        -2.0040   -5.2020    1.8310 C.3       1 BEP1        0.0000
     20 H131       -2.4690   -5.6260    0.9140 H         1 BEP1        0.0000
     21 H132       -2.8280   -4.8750    2.5010 H         1 BEP1        0.0000
     22 H133       -1.4670   -6.0290    2.3420 H         1 BEP1        0.0000
     23 C14        -0.3880   -3.4240    2.7380 C.3       1 BEP1        0.0000
     24 H141        0.2520   -2.5540    2.4720 H         1 BEP1        0.0000
     25 H142        0.2570   -4.1620    3.2600 H         1 BEP1        0.0000
     26 H143       -1.1410   -3.0610    3.4680 H         1 BEP1        0.0000
@<TRIPOS>BOND
     1   15   13 1 
     2   17   16 1 
     3   12   11 1 
     4   13   11 1 
     5   13   16 1 
     6   13   14 1 
     7   11   10 1 
     8    3    2 1 
     9    1    2 ar
    10    1   10 ar
    11    2    4 ar
    12   10    8 ar
    13    4    5 1 
    14    4    6 ar
    15    8    6 ar
    16    8    9 1 
    17    6    7 1 
    18   16   18 2 
    19   20   19 1 
    20   18   19 1 
    21   18   23 1 
    22   19   22 1 
    23   19   21 1 
    24   24   23 1 
    25   23   25 1 
    26   23   26 1 
