@<TRIPOS>MOLECULE
C:\Users\Praveer\PycharmProjects\pdb_to_mol2_converter\data\pdb\beqg.pdb
   40    43     0     0     0
SMALL
GASTEIGER

@<TRIPOS>ATOM
      1 N9          1.4750   -0.0340    0.0940 N.ar      1 BEQ1        0.0000
      2 C8          2.0600    1.2210   -0.0150 C.ar      1 BEQ1        0.0000
      3 H8          3.1310    1.3290   -0.1340 H         1 BEQ1        0.0000
      4 C7          1.0700    2.1740   -0.0190 C.ar      1 BEQ1        0.0000
      5 C5         -0.1770    1.4690    0.1710 C.ar      1 BEQ1        0.0000
      6 C6         -1.5220    1.8950    0.2070 C.ar      1 BEQ1        0.0000
      7 O6         -1.9630    3.0450    0.1730 O.2       1 BEQ1        0.0000
      8 N1         -2.4190    0.8480    0.2750 N.ar      1 BEQ1        0.0000
      9 H1         -3.3890    1.0970    0.3100 H         1 BEQ1        0.0000
     10 C2         -2.0950   -0.4890    0.3100 C.ar      1 BEQ1        0.0000
     11 N2         -3.1010   -1.3580    0.3380 N.pl3     1 BEQ1        0.0000
     12 H21        -4.0550   -1.0850    0.3040 H         1 BEQ1        0.0000
     13 H22        -2.8720   -2.3270    0.3580 H         1 BEQ1        0.0000
     14 N3         -0.8160   -0.8890    0.2860 N.ar      1 BEQ1        0.0000
     15 C4          0.1020    0.0920    0.2070 C.ar      1 BEQ1        0.0000
     16 C10         1.1410    3.5300   -0.6210 C.3       1 BEQ1        0.0000
     17 H101        0.1580    4.0350   -0.5910 H         1 BEQ1        0.0000
     18 H102        1.4850    3.4510   -1.6680 H         1 BEQ1        0.0000
     19 N11         2.1100    4.4920    0.0290 N.4       1 BEQ1        0.0000
     20 H111        2.2110    5.2860   -0.5840 H         1 BEQ1        0.0000
     21 H112        3.0200    4.0590    0.0660 H         1 BEQ1        0.0000
     22 C12         1.9010    5.0490    1.4100 C.3       1 BEQ1        0.0000
     23 H12         2.1440    4.2900    2.1510 H         1 BEQ1        0.0000
     24 C15         2.0420    7.2430    2.3770 C.3       1 BEQ1        0.0000
     25 H15         2.2640    8.3120    2.2640 H         1 BEQ1        0.0000
     26 O15         3.1100    6.4550    2.9250 O.3       1 BEQ1        0.0000
     27 C16         2.7900    6.2490    1.5470 C.3       1 BEQ1        0.0000
     28 H16         3.5860    6.5080    0.8690 H         1 BEQ1        0.0000
     29 C13         0.4960    5.6520    1.6250 C.3       1 BEQ1        0.0000
     30 H13         0.1910    6.1670    0.6880 H         1 BEQ1        0.0000
     31 O13        -0.4920    4.6640    1.9550 O.3       1 BEQ1        0.0000
     32 H13O       -1.2840    4.7180    1.3940 H         1 BEQ1        0.0000
     33 C14         0.6210    6.7630    2.7020 C.3       1 BEQ1        0.0000
     34 H14        -0.1270    7.5620    2.5430 H         1 BEQ1        0.0000
     35 O14         0.5360    6.2670    4.0410 O.3       1 BEQ1        0.0000
     36 H14O       -0.3180    5.8360    4.1700 H         1 BEQ1        0.0000
     37 CM          2.1910   -1.3150    0.0470 C.3       1 BEQ1        0.0000
     38 HM1         3.2940   -1.1920   -0.0220 H         1 BEQ1        0.0000
     39 HM2         1.8560   -1.9000   -0.8400 H         1 BEQ1        0.0000
     40 HM3         1.9620   -1.9240    0.9490 H         1 BEQ1        0.0000
@<TRIPOS>BOND
     1   18   16 1 
     2   39   37 1 
     3   16   17 1 
     4   16    4 1 
     5   16   19 1 
     6   20   19 1 
     7    3    2 1 
     8   38   37 1 
     9    4    2 ar
    10    4    5 ar
    11    2    1 ar
    12   19   21 1 
    13   19   22 1 
    14   37    1 1 
    15   37   40 1 
    16    1   15 ar
    17    5    6 ar
    18    5   15 ar
    19    7    6 2 
    20    6    8 ar
    21   15   14 ar
    22    8    9 1 
    23    8   10 ar
    24   14   10 ar
    25   12   11 1 
    26   10   11 1 
    27   11   13 1 
    28   30   29 1 
    29   28   27 1 
    30   32   31 1 
    31   22   27 1 
    32   22   29 1 
    33   22   23 1 
    34   27   24 1 
    35   27   26 1 
    36   29   31 1 
    37   29   33 1 
    38   25   24 1 
    39   24   33 1 
    40   24   26 1 
    41   34   33 1 
    42   33   35 1 
    43   35   36 1 
