@<TRIPOS>MOLECULE
C:\Users\Praveer\PycharmProjects\pdb_to_mol2_converter\data\pdb\bf6.pdb
   34    35     0     0     0
SMALL
GASTEIGER

@<TRIPOS>ATOM
      1 CG1         1.5310    0.0070   -0.0050 C.ar      1 BF61        0.0000
      2 CG2        -0.0060    0.0040    0.0120 C.ar      1 BF61        0.0000
      3 CD1         2.2830    1.2110    0.0150 C.ar      1 BF61        0.0000
      4 HD1         1.7980    2.1740    0.0430 H         1 BF61        0.0000
      5 CD2         2.2790   -1.1980   -0.0450 C.ar      1 BF61        0.0000
      6 HD2         1.7950   -2.1620   -0.0720 H         1 BF61        0.0000
      7 CE1         3.6860    1.2080    0.0030 C.ar      1 BF61        0.0000
      8 HE1         4.2140    2.1510    0.0200 H         1 BF61        0.0000
      9 CE2         3.6810   -1.2030   -0.0520 C.ar      1 BF61        0.0000
     10 HE2         4.1980   -2.1520   -0.0870 H         1 BF61        0.0000
     11 CZ1         4.4080   -0.0000   -0.0260 C.ar      1 BF61        0.0000
     12 CD3        -0.7630    1.2030   -0.0120 C.ar      1 BF61        0.0000
     13 HD3        -0.2830    2.1690   -0.0430 H         1 BF61        0.0000
     14 CD4        -0.7470   -1.2050    0.0540 C.ar      1 BF61        0.0000
     15 HD4        -0.2590   -2.1660    0.0830 H         1 BF61        0.0000
     16 CE3        -2.1660    1.1930   -0.0030 C.ar      1 BF61        0.0000
     17 HE3        -2.6990    2.1340   -0.0240 H         1 BF61        0.0000
     18 CE4        -2.1490   -1.2180    0.0580 C.ar      1 BF61        0.0000
     19 HE4        -2.6610   -2.1690    0.0940 H         1 BF61        0.0000
     20 CZ2        -2.8820   -0.0180    0.0270 C.ar      1 BF61        0.0000
     21 C1          5.9070    0.0380   -0.0120 C.2       1 BF61        0.0000
     22 O1          6.4660    1.1460    0.0060 O.2       1 BF61        0.0000
     23 C2          6.7560   -1.2450    0.0130 C.3       1 BF61        0.0000
     24 H2          7.8050   -0.8790    0.0580 H         1 BF61        0.0000
     25 O2A         6.5700   -1.9960    1.2130 O.3       1 BF61        0.0000
     26 H2A         6.3510   -2.8070    0.7400 H         1 BF61        0.0000
     27 O2B         6.4890   -2.0690   -1.0110 O.3       1 BF61        0.0000
     28 C3         -4.3820    0.0130    0.0080 C.2       1 BF61        0.0000
     29 O3         -4.9450    1.1180   -0.0110 O.2       1 BF61        0.0000
     30 C4         -5.2250   -1.2740   -0.0200 C.3       1 BF61        0.0000
     31 H4         -6.2750   -0.9120   -0.0650 H         1 BF61        0.0000
     32 O4A        -5.0350   -2.0230   -1.2190 O.3       1 BF61        0.0000
     33 H4A        -4.8130   -2.8330   -0.7470 H         1 BF61        0.0000
     34 O4B        -4.9570   -2.0980    1.0040 O.3       1 BF61        0.0000
@<TRIPOS>BOND
     1   32   33 1 
     2   32   30 1 
     3   27   23 1 
     4   10    9 1 
     5    6    5 1 
     6   31   30 1 
     7    9    5 ar
     8    9   11 ar
     9    5    1 ar
    10   13   12 1 
    11   11   21 1 
    12   11    7 ar
    13   17   16 1 
    14   30   28 1 
    15   30   34 1 
    16   12   16 ar
    17   12    2 ar
    18   21   22 2 
    19   21   23 1 
    20   29   28 2 
    21    1    2 1 
    22    1    3 ar
    23   16   20 ar
    24    7    3 ar
    25    7    8 1 
    26   28   20 1 
    27    2   14 ar
    28   23   24 1 
    29   23   25 1 
    30    3    4 1 
    31   20   18 ar
    32   14   18 ar
    33   14   15 1 
    34   18   19 1 
    35   26   25 1 
