@<TRIPOS>MOLECULE
C:\Users\Praveer\PycharmProjects\pdb_to_mol2_converter\data\pdb\bf7.pdb
   30    31     0     0     0
SMALL
GASTEIGER

@<TRIPOS>ATOM
      1 CG1         1.5200   -0.0170    0.0000 C.ar      1 BF71        0.0000
      2 CG2        -0.0170   -0.0200   -0.0000 C.ar      1 BF71        0.0000
      3 CD1         2.2690    1.1880    0.0000 C.ar      1 BF71        0.0000
      4 HD1         1.7810    2.1500   -0.0000 H         1 BF71        0.0000
      5 CD2         2.2700   -1.2210    0.0000 C.ar      1 BF71        0.0000
      6 HD2         1.7860   -2.1850   -0.0000 H         1 BF71        0.0000
      7 CE1         3.6710    1.1900    0.0000 C.ar      1 BF71        0.0000
      8 HE1         4.1970    2.1360   -0.0000 H         1 BF71        0.0000
      9 CE2         3.6720   -1.2240    0.0000 C.ar      1 BF71        0.0000
     10 HE2         4.1920   -2.1730   -0.0000 H         1 BF71        0.0000
     11 CZ1         4.3960   -0.0150   -0.0000 C.ar      1 BF71        0.0000
     12 CD3        -0.7710    1.1820   -0.0000 C.ar      1 BF71        0.0000
     13 HD3        -0.2870    2.1460    0.0000 H         1 BF71        0.0000
     14 CD4        -0.7630   -1.2270   -0.0000 C.ar      1 BF71        0.0000
     15 HD4        -0.2750   -2.1890    0.0000 H         1 BF71        0.0000
     16 CE3        -2.1740    1.1790   -0.0000 C.ar      1 BF71        0.0000
     17 HE3        -2.7030    2.1230    0.0000 H         1 BF71        0.0000
     18 CE4        -2.1650   -1.2350   -0.0000 C.ar      1 BF71        0.0000
     19 HE4        -2.6810   -2.1860    0.0000 H         1 BF71        0.0000
     20 CZ2        -2.8930   -0.0290    0.0000 C.ar      1 BF71        0.0000
     21 C1          5.8910    0.0320    0.0000 C.2       1 BF71        0.0000
     22 O1          6.4580    1.1390   -0.0000 O.2       1 BF71        0.0000
     23 C2          6.6800   -1.3230   -0.0000 C.2       1 BF71        0.0000
     24 O2A         6.9480   -1.8320    1.1300 O.co2     1 BF71        0.0000
     25 O2B         6.9480   -1.8320   -1.1300 O.co2     1 BF71        0.0000
     26 C3         -4.3890    0.0130   -0.0000 C.2       1 BF71        0.0000
     27 O3         -4.9600    1.1180    0.0000 O.2       1 BF71        0.0000
     28 C4         -5.1730   -1.3450    0.0000 C.2       1 BF71        0.0000
     29 O4A        -5.4390   -1.8560   -1.1300 O.co2     1 BF71        0.0000
     30 O4B        -5.4390   -1.8560    1.1300 O.co2     1 BF71        0.0000
@<TRIPOS>BOND
     1   25   23 ar
     2   29   28 ar
     3    1    2 1 
     4    1    3 ar
     5    1    5 ar
     6    2   12 ar
     7    2   14 ar
     8    3    4 1 
     9    3    7 ar
    10    5    6 1 
    11    5    9 ar
    12    7    8 1 
    13    7   11 ar
    14    9   10 1 
    15    9   11 ar
    16   11   21 1 
    17   12   13 1 
    18   12   16 ar
    19   14   15 1 
    20   14   18 ar
    21   16   17 1 
    22   16   20 ar
    23   18   19 1 
    24   18   20 ar
    25   20   26 1 
    26   21   22 2 
    27   21   23 1 
    28   23   24 ar
    29   26   27 2 
    30   26   28 1 
    31   28   30 ar
