@<TRIPOS>MOLECULE
C:\Users\Praveer\PycharmProjects\pdb_to_mol2_converter\data\pdb\bfl.pdb
   22    23     0     0     0
SMALL
GASTEIGER

@<TRIPOS>ATOM
      1 CG1         1.4290    0.2090    0.2170 C.3       1 BFL1        0.0000
      2 CG2         0.0860    0.3080   -0.1780 C.3       1 BFL1        0.0000
      3 CD1         2.1980    1.4810    0.5940 C.3       1 BFL1        0.0000
      4 HD1         1.7230    2.4280    0.3890 H         1 BFL1        0.0000
      5 CD2         2.1900   -0.8550   -0.0460 C.3       1 BFL1        0.0000
      6 HD2         1.8010   -1.9090   -0.0780 H         1 BFL1        0.0000
      7 CE1         3.5380    1.4390    0.5250 C.3       1 BFL1        0.0000
      8 HE1         3.8700    1.1990    1.5210 H         1 BFL1        0.0000
      9 CE2         3.5460   -0.6670   -0.5170 C.3       1 BFL1        0.0000
     10 HE2         4.1290   -1.5310   -0.3280 H         1 BFL1        0.0000
     11 CZ1         4.0020    0.6660   -0.5360 C.3       1 BFL1        0.0000
     12 HZ1         3.6820    1.1660   -1.4660 H         1 BFL1        0.0000
     13 CD3        -0.6420    1.4450   -0.5280 C.3       1 BFL1        0.0000
     14 HD3        -0.2080    2.4500   -0.3520 H         1 BFL1        0.0000
     15 CD4        -0.7380   -0.8950    0.0470 C.3       1 BFL1        0.0000
     16 HD4        -0.2960   -1.9130    0.0630 H         1 BFL1        0.0000
     17 CE3        -2.0080    1.5070   -0.4660 C.3       1 BFL1        0.0000
     18 HE3        -2.3800    1.3650   -1.5180 H         1 BFL1        0.0000
     19 CE4        -2.0330   -0.7970    0.4300 C.3       1 BFL1        0.0000
     20 HE4        -2.6130   -1.5310    0.2960 H         1 BFL1        0.0000
     21 CZ2        -2.5880    0.6450    0.4880 C.3       1 BFL1        0.0000
     22 HZ2        -2.2950    1.0930    1.4440 H         1 BFL1        0.0000
@<TRIPOS>BOND
     1   18   17 1 
     2   12   11 1 
     3   11    9 1 
     4   11    7 1 
     5   13   17 1 
     6   13   14 1 
     7   13    2 1 
     8    9   10 1 
     9    9    5 1 
    10   17   21 1 
    11    2   15 1 
    12    2    1 1 
    13    6    5 1 
    14    5    1 1 
    15   15   16 1 
    16   15   19 1 
    17    1    3 1 
    18   20   19 1 
    19    4    3 1 
    20   19   21 1 
    21   21   22 1 
    22    7    3 1 
    23    7    8 1 
