@<TRIPOS>MOLECULE
C:\Users\Praveer\PycharmProjects\pdb_to_mol2_converter\data\pdb\bfrup.pdb
   24    24     0     0     0
SMALL
GASTEIGER

@<TRIPOS>ATOM
      1 C2          1.4440   -0.0700   -0.0910 C.3       1 BFR1        0.0000
      2 O2          1.7700   -0.7430   -1.2820 O.3       1 BFR1        0.0000
      3 HO2         1.7140   -1.6710   -1.0200 H         1 BFR1        0.0000
      4 C6         -0.4740    1.0200   -1.0350 C.3       1 BFR1        0.0000
      5 H61        -1.5700    1.1450   -0.8810 H         1 BFR1        0.0000
      6 H62        -0.3390    0.5480   -2.0340 H         1 BFR1        0.0000
      7 O6          0.0280    0.1420   -0.0140 O.3       1 BFR1        0.0000
      8 C3          2.1870    1.2690   -0.0510 C.3       1 BFR1        0.0000
      9 H3          1.9580    1.7330    0.9390 H         1 BFR1        0.0000
     10 O3          3.6150    1.1240   -0.1230 O.3       1 BFR1        0.0000
     11 HO3         3.8150    0.4910   -0.8260 H         1 BFR1        0.0000
     12 C4          1.6860    2.2170   -1.1280 C.3       1 BFR1        0.0000
     13 H4          1.9120    1.7670   -2.1250 H         1 BFR1        0.0000
     14 O4          2.3590    3.4750   -1.0650 O.3       1 BFR1        0.0000
     15 HO4         3.2740    3.2920   -0.8130 H         1 BFR1        0.0000
     16 C5          0.1880    2.3850   -1.0170 C.3       1 BFR1        0.0000
     17 H5         -0.1750    2.9730   -1.8950 H         1 BFR1        0.0000
     18 O5         -0.1750    3.0960    0.1580 O.3       1 BFR1        0.0000
     19 HO5         0.3790    3.8870    0.1860 H         1 BFR1        0.0000
     20 C1          1.7440   -0.9570    1.1340 C.3       1 BFR1        0.0000
     21 H1A         1.0220   -0.7380    1.9520 H         1 BFR1        0.0000
     22 H1B         2.7470   -0.6670    1.5210 H         1 BFR1        0.0000
     23 O1          1.8020   -2.3780    0.8920 O.3       1 BFR1        0.0000
     24 HO1         0.9660   -2.7910    1.1390 H         1 BFR1        0.0000
@<TRIPOS>BOND
     1   13   12 1 
     2    6    4 1 
     3   17   16 1 
     4    2    3 1 
     5    2    1 1 
     6   12   14 1 
     7   12   16 1 
     8   12    8 1 
     9   14   15 1 
    10    4   16 1 
    11    4    5 1 
    12    4    7 1 
    13   16   18 1 
    14   11   10 1 
    15   10    8 1 
    16    1    8 1 
    17    1    7 1 
    18    1   20 1 
    19    8    9 1 
    20   18   19 1 
    21   23   20 1 
    22   23   24 1 
    23   20   22 1 
    24   20   21 1 
