@<TRIPOS>MOLECULE
C:\Users\Praveer\PycharmProjects\pdb_to_mol2_converter\data\pdb\bfru.pdb
   24    24     0     0     0
SMALL
GASTEIGER

@<TRIPOS>ATOM
      1 O5          1.4740    0.0570   -0.2400 O.3       1 BFR1        0.0000
      2 C2          1.9580    1.3950   -0.1180 C.3       1 BFR1        0.0000
      3 O2          2.3620    1.9700   -1.3290 O.3       1 BFR1        0.0000
      4 HO2         1.8840    2.8040   -1.3780 H         1 BFR1        0.0000
      5 C5          0.0480    0.0330   -0.0280 C.3       1 BFR1        0.0000
      6 H5         -0.1110   -0.3990    0.9880 H         1 BFR1        0.0000
      7 C6         -0.5970   -0.8500   -1.0670 C.3       1 BFR1        0.0000
      8 H61        -0.3750   -0.4580   -2.0870 H         1 BFR1        0.0000
      9 H62        -1.7030   -0.8520   -0.9270 H         1 BFR1        0.0000
     10 O6         -0.1210   -2.1910   -0.9700 O.3       1 BFR1        0.0000
     11 HO6         0.8400   -2.1800   -1.0420 H         1 BFR1        0.0000
     12 C1          3.1650    1.3430    0.8120 C.3       1 BFR1        0.0000
     13 H11         3.9520    0.7020    0.3520 H         1 BFR1        0.0000
     14 H12         2.8630    0.8530    1.7650 H         1 BFR1        0.0000
     15 O1          3.7210    2.6340    1.1210 O.3       1 BFR1        0.0000
     16 HO1         4.1920    2.9650    0.3460 H         1 BFR1        0.0000
     17 C3          0.7950    2.2030    0.5170 C.3       1 BFR1        0.0000
     18 H3          0.8130    2.0230    1.6180 H         1 BFR1        0.0000
     19 O3          0.7910    3.6050    0.2930 O.3       1 BFR1        0.0000
     20 HO3         1.4780    4.0080    0.8420 H         1 BFR1        0.0000
     21 C4         -0.4150    1.4890   -0.0750 C.3       1 BFR1        0.0000
     22 H4         -0.6060    1.8140   -1.1210 H         1 BFR1        0.0000
     23 O4         -1.5630    1.6540    0.7190 O.3       1 BFR1        0.0000
     24 HO4        -1.8290    2.5800    0.6910 H         1 BFR1        0.0000
@<TRIPOS>BOND
     1    8    7 1 
     2    4    3 1 
     3    3    2 1 
     4   22   21 1 
     5    7   10 1 
     6    7    9 1 
     7    7    5 1 
     8   11   10 1 
     9    1    2 1 
    10    1    5 1 
    11    2   17 1 
    12    2   12 1 
    13   21    5 1 
    14   21   17 1 
    15   21   23 1 
    16    5    6 1 
    17   19   17 1 
    18   19   20 1 
    19   16   15 1 
    20   13   12 1 
    21   17   18 1 
    22   24   23 1 
    23   12   15 1 
    24   12   14 1 
