@<TRIPOS>MOLECULE
C:\Users\Praveer\PycharmProjects\pdb_to_mol2_converter\data\pdb\bfucna.pdb
   29    29     0     0     0
SMALL
GASTEIGER

@<TRIPOS>ATOM
      1 C1          1.4760    0.1630   -0.0740 C.3       1 BFU1        0.0000
      2 H1          1.8020   -0.3260   -1.0230 H         1 BFU1        0.0000
      3 O1          2.0800   -0.5190    0.9840 O.3       1 BFU1        0.0000
      4 HO1         1.5850   -0.2610    1.7670 H         1 BFU1        0.0000
      5 C5         -0.6050    0.6710   -1.0290 C.3       1 BFU1        0.0000
      6 H5         -0.2540    0.2130   -1.9850 H         1 BFU1        0.0000
      7 O5          0.0700    0.0470    0.0610 O.3       1 BFU1        0.0000
      8 C2          1.9500    1.6060   -0.0630 C.3       1 BFU1        0.0000
      9 H2          1.6490    2.0470    0.9200 H         1 BFU1        0.0000
     10 N           3.4170    1.5990   -0.0770 N.am      1 BFU1        0.0000
     11 HN          3.7780    0.8350    0.4510 H         1 BFU1        0.0000
     12 C           4.3150    2.3850   -0.6950 C.2       1 BFU1        0.0000
     13 O           4.0370    3.3430   -1.4000 O.2       1 BFU1        0.0000
     14 CT          5.7540    2.0050   -0.4720 C.3       1 BFU1        0.0000
     15 HT1         5.9750    1.0490   -0.9940 H         1 BFU1        0.0000
     16 HT2         5.9570    1.9070    0.6140 H         1 BFU1        0.0000
     17 HT3         6.4050    2.8020   -0.8880 H         1 BFU1        0.0000
     18 C3          1.2050    2.3950   -1.1400 C.3       1 BFU1        0.0000
     19 H3          1.5620    2.0430   -2.1370 H         1 BFU1        0.0000
     20 O3          1.4770    3.7900   -1.0450 O.3       1 BFU1        0.0000
     21 HO3         2.4260    3.9080   -1.2340 H         1 BFU1        0.0000
     22 C4         -0.2970    2.1630   -1.0610 C.3       1 BFU1        0.0000
     23 H4         -0.7700    2.5960   -1.9740 H         1 BFU1        0.0000
     24 O4         -0.8590    2.8380    0.0610 O.3       1 BFU1        0.0000
     25 HO4        -0.4170    3.6980    0.0890 H         1 BFU1        0.0000
     26 C6         -2.1010    0.3470   -0.8810 C.3       1 BFU1        0.0000
     27 H61        -2.2540   -0.7520   -0.8610 H         1 BFU1        0.0000
     28 H62        -2.6840    0.7850   -1.7170 H         1 BFU1        0.0000
     29 H63        -2.4830    0.7640    0.0760 H         1 BFU1        0.0000
@<TRIPOS>BOND
     1   19   18 1 
     2    6    5 1 
     3   23   22 1 
     4   28   26 1 
     5   13   12 2 
     6   21   20 1 
     7   18   22 1 
     8   18   20 1 
     9   18    8 1 
    10   22    5 1 
    11   22   24 1 
    12    5   26 1 
    13    5    7 1 
    14    2    1 1 
    15   15   14 1 
    16   17   14 1 
    17   26   27 1 
    18   26   29 1 
    19   12   14 1 
    20   12   10 am
    21   14   16 1 
    22   10    8 1 
    23   10   11 1 
    24    1    8 1 
    25    1    7 1 
    26    1    3 1 
    27    8    9 1 
    28   24   25 1 
    29    3    4 1 
