@<TRIPOS>MOLECULE
C:\Users\Praveer\PycharmProjects\pdb_to_mol2_converter\data\pdb\bfuc.pdb
   23    23     0     0     0
SMALL
GASTEIGER

@<TRIPOS>ATOM
      1 C1          1.4510    0.0260   -0.0130 C.3       1 BFU1        0.0000
      2 H1          1.7840   -0.4800   -0.9490 H         1 BFU1        0.0000
      3 O1          1.9610   -0.6910    1.0740 O.3       1 BFU1        0.0000
      4 HO1         1.4410   -0.4080    1.8310 H         1 BFU1        0.0000
      5 C5         -0.5790    0.7060   -1.0230 C.3       1 BFU1        0.0000
      6 H5         -0.2570    0.2260   -1.9770 H         1 BFU1        0.0000
      7 O5          0.0290    0.0030    0.0660 O.3       1 BFU1        0.0000
      8 C2          1.9710    1.4590    0.0110 C.3       1 BFU1        0.0000
      9 H2          1.6450    1.9270    0.9710 H         1 BFU1        0.0000
     10 O2          3.4030    1.5180   -0.0390 O.3       1 BFU1        0.0000
     11 HO2         3.7520    0.8810    0.5990 H         1 BFU1        0.0000
     12 C3          1.3590    2.2450   -1.1340 C.3       1 BFU1        0.0000
     13 H3          1.6830    1.7730   -2.0920 H         1 BFU1        0.0000
     14 O3          1.8240    3.5940   -1.1480 O.3       1 BFU1        0.0000
     15 HO3         2.7760    3.5590   -0.9790 H         1 BFU1        0.0000
     16 C4         -0.1520    2.1740   -1.0550 C.3       1 BFU1        0.0000
     17 H4         -0.5840    2.6470   -1.9680 H         1 BFU1        0.0000
     18 O4         -0.6390    2.8940    0.0730 O.3       1 BFU1        0.0000
     19 HO4        -0.2130    3.7600    0.0580 H         1 BFU1        0.0000
     20 C6         -2.1010    0.5090   -0.9010 C.3       1 BFU1        0.0000
     21 H61        -2.3500   -0.5730   -0.9100 H         1 BFU1        0.0000
     22 H62        -2.6300    1.0100   -1.7370 H         1 BFU1        0.0000
     23 H63        -2.4610    0.9410    0.0570 H         1 BFU1        0.0000
@<TRIPOS>BOND
     1   13   12 1 
     2    6    5 1 
     3   17   16 1 
     4   22   20 1 
     5   14   12 1 
     6   14   15 1 
     7   12   16 1 
     8   12    8 1 
     9   16    5 1 
    10   16   18 1 
    11    5   20 1 
    12    5    7 1 
    13    2    1 1 
    14   21   20 1 
    15   20   23 1 
    16   10    8 1 
    17   10   11 1 
    18    1    8 1 
    19    1    7 1 
    20    1    3 1 
    21    8    9 1 
    22   19   18 1 
    23    3    4 1 
