@<TRIPOS>MOLECULE
C:\Users\Praveer\PycharmProjects\pdb_to_mol2_converter\data\pdb\bgaln.pdb
   25    25     0     0     0
SMALL
GASTEIGER

@<TRIPOS>ATOM
      1 C1          1.4150    0.0380   -0.0310 C.3       1 BGA1        0.0000
      2 H1          1.7250   -0.5040    0.8910 H         1 BGA1        0.0000
      3 O1          1.8760   -0.6820   -1.1350 O.3       1 BGA1        0.0000
      4 HO1         1.4390   -0.2980   -1.8990 H         1 BGA1        0.0000
      5 C5         -0.5850    0.8290    0.9870 C.3       1 BGA1        0.0000
      6 H5         -0.2550    0.3340    1.9320 H         1 BGA1        0.0000
      7 O5         -0.0080    0.0990   -0.1070 O.3       1 BGA1        0.0000
      8 C2          2.0270    1.4380   -0.0300 C.3       1 BGA1        0.0000
      9 H2          1.7200    1.9260   -0.9890 H         1 BGA1        0.0000
     10 N2          3.4880    1.4810   -0.0060 N.3       1 BGA1        0.0000
     11 HN21        3.9260    1.1690   -0.8510 H         1 BGA1        0.0000
     12 HN22        3.9390    1.1680    0.8300 H         1 BGA1        0.0000
     13 C3          1.4380    2.2460    1.1040 C.3       1 BGA1        0.0000
     14 H3          1.7380    1.7630    2.0650 H         1 BGA1        0.0000
     15 O3          2.0000    3.5520    1.0900 O.3       1 BGA1        0.0000
     16 HO3         2.8900    3.4450    0.7200 H         1 BGA1        0.0000
     17 C4         -0.0730    2.2740    1.0190 C.3       1 BGA1        0.0000
     18 H4         -0.4720    2.7720    1.9350 H         1 BGA1        0.0000
     19 O4         -0.5050    3.0350   -0.1060 O.3       1 BGA1        0.0000
     20 HO4         0.0140    3.8510   -0.1020 H         1 BGA1        0.0000
     21 C6         -2.0990    0.6960    0.9440 C.3       1 BGA1        0.0000
     22 H61        -2.5450    1.1800    1.8420 H         1 BGA1        0.0000
     23 H62        -2.3820   -0.3810    0.9590 H         1 BGA1        0.0000
     24 O6         -2.6660    1.2930   -0.2190 O.3       1 BGA1        0.0000
     25 HO6        -2.0750    2.0210   -0.4810 H         1 BGA1        0.0000
@<TRIPOS>BOND
     1    4    3 1 
     2    3    1 1 
     3    9    8 1 
     4   11   10 1 
     5   25   24 1 
     6   24   21 1 
     7    7    1 1 
     8    7    5 1 
     9   19   20 1 
    10   19   17 1 
    11    1    8 1 
    12    1    2 1 
    13    8   10 1 
    14    8   13 1 
    15   10   12 1 
    16   16   15 1 
    17   21   23 1 
    18   21    5 1 
    19   21   22 1 
    20    5   17 1 
    21    5    6 1 
    22   17   13 1 
    23   17   18 1 
    24   15   13 1 
    25   13   14 1 
