@<TRIPOS>MOLECULE
C:\Users\Praveer\PycharmProjects\pdb_to_mol2_converter\data\pdb\bgalna.pdb
   30    30     0     0     0
SMALL
GASTEIGER

@<TRIPOS>ATOM
      1 C1          1.4120   -0.0710    0.1010 C.3       1 BGA1        0.0000
      2 H1          1.6980   -0.5510    1.0650 H         1 BGA1        0.0000
      3 O1          1.9340   -0.8580   -0.9270 O.3       1 BGA1        0.0000
      4 HO1         2.1900   -0.2810   -1.6600 H         1 BGA1        0.0000
      5 C5         -0.5780    0.6640    1.1560 C.3       1 BGA1        0.0000
      6 H5         -0.2050    0.1640    2.0830 H         1 BGA1        0.0000
      7 O5         -0.0110    0.0260   -0.0010 O.3       1 BGA1        0.0000
      8 C2          1.9700    1.3480    0.0260 C.3       1 BGA1        0.0000
      9 H2          1.5750    1.8090   -0.9160 H         1 BGA1        0.0000
     10 N           3.4220    1.4600   -0.0240 N.am      1 BGA1        0.0000
     11 HN          3.8730    1.7760    0.8050 H         1 BGA1        0.0000
     12 C           4.1320    1.3010   -1.1470 C.2       1 BGA1        0.0000
     13 O           3.6020    1.0000   -2.2100 O.2       1 BGA1        0.0000
     14 CT          5.6190    1.5170   -1.0430 C.3       1 BGA1        0.0000
     15 HT1         6.0350    0.9110   -0.2120 H         1 BGA1        0.0000
     16 HT2         5.8310    2.5910   -0.8650 H         1 BGA1        0.0000
     17 HT3         6.0980    1.2050   -1.9940 H         1 BGA1        0.0000
     18 C3          1.3950    2.1460    1.1800 C.3       1 BGA1        0.0000
     19 H3          1.7490    1.6780    2.1300 H         1 BGA1        0.0000
     20 O3          1.8860    3.4790    1.1740 O.3       1 BGA1        0.0000
     21 HO3         1.3260    3.9950    0.5790 H         1 BGA1        0.0000
     22 C4         -0.1200    2.1120    1.1670 C.3       1 BGA1        0.0000
     23 H4         -0.4990    2.6090    2.0920 H         1 BGA1        0.0000
     24 O4         -0.6550    2.8170    0.0490 O.3       1 BGA1        0.0000
     25 HO4        -0.6440    2.2320   -0.7210 H         1 BGA1        0.0000
     26 C6         -2.0820    0.5030    1.1200 C.3       1 BGA1        0.0000
     27 H61        -2.4990    0.8850    0.1620 H         1 BGA1        0.0000
     28 H62        -2.5420    1.0860    1.9500 H         1 BGA1        0.0000
     29 O6         -2.4470   -0.8670    1.2800 O.3       1 BGA1        0.0000
     30 HO6        -2.1020   -1.3750    0.5360 H         1 BGA1        0.0000
@<TRIPOS>BOND
     1   13   12 2 
     2   17   14 1 
     3    4    3 1 
     4   12   14 1 
     5   12   10 am
     6   14   16 1 
     7   14   15 1 
     8    3    1 1 
     9    9    8 1 
    10   25   24 1 
    11   10    8 1 
    12   10   11 1 
    13    7    1 1 
    14    7    5 1 
    15    8    1 1 
    16    8   18 1 
    17   24   22 1 
    18    1    2 1 
    19   27   26 1 
    20   30   29 1 
    21   21   20 1 
    22   26    5 1 
    23   26   29 1 
    24   26   28 1 
    25    5   22 1 
    26    5    6 1 
    27   22   18 1 
    28   22   23 1 
    29   20   18 1 
    30   18   19 1 
