@<TRIPOS>MOLECULE
C:\Users\Praveer\PycharmProjects\pdb_to_mol2_converter\data\pdb\bgal.pdb
   24    24     0     0     0
SMALL
GASTEIGER

@<TRIPOS>ATOM
      1 C1          1.4230    0.0340   -0.0180 C.3       1 BGA1        0.0000
      2 H1          1.7180   -0.4950    0.9180 H         1 BGA1        0.0000
      3 O1          1.8890   -0.7140   -1.1030 O.3       1 BGA1        0.0000
      4 HO1         1.3770   -0.4140   -1.8610 H         1 BGA1        0.0000
      5 C5         -0.5720    0.8460    0.9840 C.3       1 BGA1        0.0000
      6 H5         -0.2560    0.3460    1.9320 H         1 BGA1        0.0000
      7 O5          0.0040    0.1070   -0.1060 O.3       1 BGA1        0.0000
      8 C2          2.0360    1.4290   -0.0350 C.3       1 BGA1        0.0000
      9 H2          1.7500    1.9200   -0.9970 H         1 BGA1        0.0000
     10 O2          3.4680    1.3940    0.0270 O.3       1 BGA1        0.0000
     11 HO2         3.7840    0.7440   -0.6160 H         1 BGA1        0.0000
     12 C3          1.4690    2.2520    1.1080 C.3       1 BGA1        0.0000
     13 H3          1.7580    1.7590    2.0680 H         1 BGA1        0.0000
     14 O3          2.0220    3.5670    1.1260 O.3       1 BGA1        0.0000
     15 HO3         2.9730    3.4700    0.9760 H         1 BGA1        0.0000
     16 C4         -0.0440    2.2850    1.0250 C.3       1 BGA1        0.0000
     17 H4         -0.4410    2.7820    1.9420 H         1 BGA1        0.0000
     18 O4         -0.4680    3.0550   -0.0980 O.3       1 BGA1        0.0000
     19 HO4         0.0610    3.8660   -0.0900 H         1 BGA1        0.0000
     20 C6         -2.0870    0.7310    0.9280 C.3       1 BGA1        0.0000
     21 H61        -2.5360    1.2280    1.8170 H         1 BGA1        0.0000
     22 H62        -2.3840   -0.3420    0.9490 H         1 BGA1        0.0000
     23 O6         -2.6350    1.3240   -0.2470 O.3       1 BGA1        0.0000
     24 HO6        -2.0470    2.0580   -0.4950 H         1 BGA1        0.0000
@<TRIPOS>BOND
     1    4    3 1 
     2    3    1 1 
     3    9    8 1 
     4   11   10 1 
     5   24   23 1 
     6   23   20 1 
     7    7    1 1 
     8    7    5 1 
     9   18   19 1 
    10   18   16 1 
    11    8    1 1 
    12    8   10 1 
    13    8   12 1 
    14    1    2 1 
    15   20   22 1 
    16   20    5 1 
    17   20   21 1 
    18   15   14 1 
    19    5   16 1 
    20    5    6 1 
    21   16   12 1 
    22   16   17 1 
    23   12   14 1 
    24   12   13 1 
