@<TRIPOS>MOLECULE
C:\Users\Praveer\PycharmProjects\pdb_to_mol2_converter\data\pdb\bgala.pdb
   22    22     0     0     0
SMALL
GASTEIGER

@<TRIPOS>ATOM
      1 C1          1.4690    0.0160   -0.0190 C.3       1 BGA1        0.0000
      2 H1          1.8030   -0.5190    0.9000 H         1 BGA1        0.0000
      3 O1          1.9340   -0.6860   -1.1360 O.3       1 BGA1        0.0000
      4 HO1         1.3450   -0.4020   -1.8430 H         1 BGA1        0.0000
      5 C5         -0.5380    0.7710    1.0130 C.3       1 BGA1        0.0000
      6 H5         -0.2320    0.3040    1.9740 H         1 BGA1        0.0000
      7 O5          0.0470    0.0150   -0.0780 O.3       1 BGA1        0.0000
      8 C2          2.0330    1.4340   -0.0220 C.3       1 BGA1        0.0000
      9 H2          1.7210    1.9290   -0.9730 H         1 BGA1        0.0000
     10 O2          3.4680    1.4440    0.0110 O.3       1 BGA1        0.0000
     11 HO2         3.7760    0.8030   -0.6420 H         1 BGA1        0.0000
     12 C3          1.4370    2.2170    1.1360 C.3       1 BGA1        0.0000
     13 H3          1.6900    1.6810    2.0810 H         1 BGA1        0.0000
     14 O3          2.0090    3.5180    1.2500 O.3       1 BGA1        0.0000
     15 HO3         2.8670    3.4690    0.8110 H         1 BGA1        0.0000
     16 C4         -0.0730    2.2290    0.9920 C.3       1 BGA1        0.0000
     17 H4         -0.5220    2.7700    1.8590 H         1 BGA1        0.0000
     18 O4         -0.4990    2.8770   -0.2060 O.3       1 BGA1        0.0000
     19 HO4        -1.3760    2.4640   -0.3880 H         1 BGA1        0.0000
     20 C6         -2.0770    0.7210    0.9550 C.2       1 BGA1        0.0000
     21 O61        -2.5920    0.6350    2.1030 O.co2     1 BGA1        0.0000
     22 O62        -2.5700    1.2450   -0.0830 O.co2     1 BGA1        0.0000
@<TRIPOS>BOND
     1    4    3 1 
     2    3    1 1 
     3    9    8 1 
     4   11   10 1 
     5   19   18 1 
     6   18   16 1 
     7   22   20 ar
     8    7    1 1 
     9    7    5 1 
    10    8    1 1 
    11    8   10 1 
    12    8   12 1 
    13    1    2 1 
    14   15   14 1 
    15   20    5 1 
    16   20   21 ar
    17   16    5 1 
    18   16   12 1 
    19   16   17 1 
    20    5    6 1 
    21   12   14 1 
    22   12   13 1 
