@<TRIPOS>MOLECULE
C:\Users\Praveer\PycharmProjects\pdb_to_mol2_converter\data\pdb\bgau.pdb
   50    50     0     0     0
SMALL
GASTEIGER

@<TRIPOS>ATOM
      1 N1          1.3980    0.0330    0.0070 N.ar      1 BGA1        0.0000
      2 C2          2.0760    1.2710   -0.0730 C.ar      1 BGA1        0.0000
      3 S2          3.8260    1.4000   -0.0560 S.3       1 BGA1        0.0000
      4 N3          1.3630    2.4180   -0.1940 N.ar      1 BGA1        0.0000
      5 C4          0.0100    2.4260   -0.2030 C.ar      1 BGA1        0.0000
      6 O4         -0.6120    3.4810   -0.3300 O.2       1 BGA1        0.0000
      7 C5         -0.7090    1.1710   -0.1320 C.ar      1 BGA1        0.0000
      8 C6          0.0380    0.0270   -0.0180 C.ar      1 BGA1        0.0000
      9 H6         -0.4360   -0.9520    0.0860 H         1 BGA1        0.0000
     10 C20         4.2220    3.1870   -0.1440 C.3       1 BGA1        0.0000
     11 H201        3.5930    3.6930   -0.9060 H         1 BGA1        0.0000
     12 H202        5.2670    3.2950   -0.5060 H         1 BGA1        0.0000
     13 C7         -2.1890    1.2140   -0.0880 C.3       1 BGA1        0.0000
     14 H71        -2.5310    1.7450    0.8190 H         1 BGA1        0.0000
     15 H72        -2.6340    0.2070   -0.1760 H         1 BGA1        0.0000
     16 N8         -2.6700    2.0110   -1.2620 N.4       1 BGA1        0.0000
     17 H81        -2.3270    1.6150   -2.1240 H         1 BGA1        0.0000
     18 H82        -2.1750    2.9070   -1.1840 H         1 BGA1        0.0000
     19 C9         -4.1510    2.2520   -1.3340 C.3       1 BGA1        0.0000
     20 H91        -4.4520    2.7480   -0.3860 H         1 BGA1        0.0000
     21 H92        -4.6430    1.2630   -1.4530 H         1 BGA1        0.0000
     22 H93        -4.3360    2.9080   -2.2110 H         1 BGA1        0.0000
     23 C21         4.1310    3.8080    1.2320 C.2       1 BGA1        0.0000
     24 H21         4.7900    3.3330    1.9740 H         1 BGA1        0.0000
     25 C22         3.3870    4.8570    1.6440 C.2       1 BGA1        0.0000
     26 C23         2.4560    5.6380    0.7490 C.3       1 BGA1        0.0000
     27 H231        2.3600    5.2330   -0.2790 H         1 BGA1        0.0000
     28 H232        2.7850    6.6950    0.6610 H         1 BGA1        0.0000
     29 H233        1.4320    5.6450    1.1820 H         1 BGA1        0.0000
     30 C24         3.4820    5.3180    3.0790 C.3       1 BGA1        0.0000
     31 H241        3.8760    4.5140    3.7430 H         1 BGA1        0.0000
     32 H242        2.4590    5.5540    3.4480 H         1 BGA1        0.0000
     33 C25         4.3830    6.5670    3.2500 C.3       1 BGA1        0.0000
     34 H251        4.0220    7.3750    2.5770 H         1 BGA1        0.0000
     35 H252        5.4130    6.3210    2.9060 H         1 BGA1        0.0000
     36 C26         4.4360    7.0380    4.6860 C.2       1 BGA1        0.0000
     37 H26         5.1790    6.5180    5.3080 H         1 BGA1        0.0000
     38 C27         3.6600    7.9700    5.2760 C.2       1 BGA1        0.0000
     39 C28         3.8780    8.3160    6.7240 C.3       1 BGA1        0.0000
     40 H281        4.7150    7.7520    7.1920 H         1 BGA1        0.0000
     41 H282        2.9620    8.1020    7.3160 H         1 BGA1        0.0000
     42 H283        4.1030    9.3980    6.8360 H         1 BGA1        0.0000
     43 C29         2.5510    8.7020    4.5670 C.3       1 BGA1        0.0000
     44 H291        2.3800    8.3600    3.5240 H         1 BGA1        0.0000
     45 H292        2.7650    9.7920    4.5290 H         1 BGA1        0.0000
     46 H293        1.5920    8.5700    5.1110 H         1 BGA1        0.0000
     47 CM          2.1680   -1.2190    0.1220 C.3       1 BGA1        0.0000
     48 HM1         2.7990   -1.2240    1.0420 H         1 BGA1        0.0000
     49 HM2         2.8520   -1.3560   -0.7480 H         1 BGA1        0.0000
     50 HM3         1.5200   -2.1240    0.1690 H         1 BGA1        0.0000
@<TRIPOS>BOND
     1   22   19 1 
     2   17   16 1 
     3   21   19 1 
     4   19   16 1 
     5   19   20 1 
     6   16   18 1 
     7   16   13 1 
     8   11   10 1 
     9   49   47 1 
    10   12   10 1 
    11    6    5 2 
    12   27   26 1 
    13    5    4 ar
    14    5    7 ar
    15    4    2 ar
    16   15   13 1 
    17   10    3 1 
    18   10   23 1 
    19    7   13 1 
    20    7    8 ar
    21   13   14 1 
    22    2    3 1 
    23    2    1 ar
    24    8    1 ar
    25    8    9 1 
    26    1   47 1 
    27   47   50 1 
    28   47   48 1 
    29   28   26 1 
    30   26   29 1 
    31   26   25 1 
    32   23   25 2 
    33   23   24 1 
    34   25   30 1 
    35   34   33 1 
    36   35   33 1 
    37   30   33 1 
    38   30   32 1 
    39   30   31 1 
    40   33   36 1 
    41   44   43 1 
    42   45   43 1 
    43   43   46 1 
    44   43   38 1 
    45   36   38 2 
    46   36   37 1 
    47   38   39 1 
    48   39   42 1 
    49   39   40 1 
    50   39   41 1 
