@<TRIPOS>MOLECULE
C:\Users\Praveer\PycharmProjects\pdb_to_mol2_converter\data\pdb\bgcu.pdb
   52    52     0     0     0
SMALL
GASTEIGER

@<TRIPOS>ATOM
      1 N1          1.3960    0.0270    0.0500 N.ar      1 BGC1        0.0000
      2 C2          2.0730    1.2590   -0.1050 C.ar      1 BGC1        0.0000
      3 S2          3.8150    1.4030   -0.2370 S.3       1 BGC1        0.0000
      4 N3          1.3580    2.4010   -0.2360 N.ar      1 BGC1        0.0000
      5 C4          0.0060    2.4230   -0.1540 C.ar      1 BGC1        0.0000
      6 O4         -0.5930    3.4960   -0.1510 O.2       1 BGC1        0.0000
      7 C5         -0.7160    1.1700   -0.0670 C.ar      1 BGC1        0.0000
      8 C6          0.0340    0.0290    0.0670 C.ar      1 BGC1        0.0000
      9 H6         -0.4440   -0.9470    0.1720 H         1 BGC1        0.0000
     10 C20         4.1070    2.9980   -1.0970 C.3       1 BGC1        0.0000
     11 H201        3.3010    3.2040   -1.8340 H         1 BGC1        0.0000
     12 H202        5.0280    2.8960   -1.7090 H         1 BGC1        0.0000
     13 C7         -2.1980    1.1810   -0.1030 C.3       1 BGC1        0.0000
     14 H71        -2.6200    1.9500    0.5660 H         1 BGC1        0.0000
     15 H72        -2.6100    0.1790    0.1150 H         1 BGC1        0.0000
     16 N8         -2.6190    1.5030   -1.4990 N.4       1 BGC1        0.0000
     17 H81        -3.4720    0.9890   -1.7360 H         1 BGC1        0.0000
     18 H82        -1.9430    1.1980   -2.1780 H         1 BGC1        0.0000
     19 C9         -3.0500    2.9340   -1.8570 C.3       1 BGC1        0.0000
     20 H91        -2.2610    3.3490   -2.4930 H         1 BGC1        0.0000
     21 H92        -3.1450    3.4840   -0.9140 H         1 BGC1        0.0000
     22 C10        -4.4010    2.8930   -2.5830 C.2       1 BGC1        0.0000
     23 O11        -4.8490    4.0030   -2.9460 O.co2     1 BGC1        0.0000
     24 O12        -4.9140    1.7490   -2.7410 O.co2     1 BGC1        0.0000
     25 C21         4.3270    4.1290   -0.1170 C.2       1 BGC1        0.0000
     26 H21         5.1830    3.9710    0.5550 H         1 BGC1        0.0000
     27 C22         3.6280    5.2770    0.0250 C.2       1 BGC1        0.0000
     28 C23         2.4080    5.6290   -0.7900 C.3       1 BGC1        0.0000
     29 H231        2.0640    4.8250   -1.4720 H         1 BGC1        0.0000
     30 H232        2.5870    6.5320   -1.4090 H         1 BGC1        0.0000
     31 H233        1.5500    5.8500   -0.1170 H         1 BGC1        0.0000
     32 C24         4.1110    6.3320    0.9930 C.3       1 BGC1        0.0000
     33 H241        4.7760    5.8990    1.7760 H         1 BGC1        0.0000
     34 H242        3.2390    6.7710    1.5280 H         1 BGC1        0.0000
     35 C25         4.8880    7.4590    0.2660 C.3       1 BGC1        0.0000
     36 H251        4.2460    7.8860   -0.5350 H         1 BGC1        0.0000
     37 H252        5.7610    7.0080   -0.2590 H         1 BGC1        0.0000
     38 C26         5.3830    8.5330    1.2070 C.2       1 BGC1        0.0000
     39 H26         6.2810    8.2520    1.7760 H         1 BGC1        0.0000
     40 C27         4.8490    9.7510    1.4380 C.2       1 BGC1        0.0000
     41 C28         5.5210   10.6910    2.4030 C.3       1 BGC1        0.0000
     42 H281        6.4450   10.2710    2.8590 H         1 BGC1        0.0000
     43 H282        4.8320   10.9580    3.2320 H         1 BGC1        0.0000
     44 H283        5.8060   11.6340    1.8880 H         1 BGC1        0.0000
     45 C29         3.5900   10.2580    0.7830 C.3       1 BGC1        0.0000
     46 H291        3.1080    9.5260    0.1020 H         1 BGC1        0.0000
     47 H292        3.8030   11.1730    0.1910 H         1 BGC1        0.0000
     48 H293        2.8360   10.5270    1.5530 H         1 BGC1        0.0000
     49 CM          2.1640   -1.2250    0.1650 C.3       1 BGC1        0.0000
     50 HM1         2.8450   -1.2050    1.0480 H         1 BGC1        0.0000
     51 HM2         2.7970   -1.3990   -0.7380 H         1 BGC1        0.0000
     52 HM3         1.5110   -2.1200    0.2790 H         1 BGC1        0.0000
@<TRIPOS>BOND
     1   23   22 ar
     2   24   22 ar
     3   22   19 1 
     4   20   19 1 
     5   18   16 1 
     6   19   16 1 
     7   19   21 1 
     8   11   10 1 
     9   17   16 1 
    10   12   10 1 
    11   16   13 1 
    12   29   28 1 
    13   30   28 1 
    14   10    3 1 
    15   10   25 1 
    16   28   31 1 
    17   28   27 1 
    18   51   49 1 
    19   36   35 1 
    20   37   35 1 
    21    3    2 1 
    22    4    5 ar
    23    4    2 ar
    24    5    6 2 
    25    5    7 ar
    26   25   27 2 
    27   25   26 1 
    28    2    1 ar
    29   13    7 1 
    30   13   15 1 
    31   13   14 1 
    32    7    8 ar
    33   27   32 1 
    34    1    8 ar
    35    1   49 1 
    36    8    9 1 
    37   46   45 1 
    38   49   52 1 
    39   49   50 1 
    40   47   45 1 
    41   35   32 1 
    42   35   38 1 
    43   45   40 1 
    44   45   48 1 
    45   32   34 1 
    46   32   33 1 
    47   38   40 2 
    48   38   39 1 
    49   40   41 1 
    50   44   41 1 
    51   41   42 1 
    52   41   43 1 
