@<TRIPOS>MOLECULE
C:\Users\Praveer\PycharmProjects\pdb_to_mol2_converter\data\pdb\bglca0.pdb
   22    22     0     0     0
SMALL
GASTEIGER

@<TRIPOS>ATOM
      1 C1          1.4540    0.0290    0.0510 C.3       1 BGL1        0.0000
      2 H1          1.7990   -0.4540    0.9960 H         1 BGL1        0.0000
      3 O1          1.9570   -0.7100   -1.0250 O.3       1 BGL1        0.0000
      4 HO1         1.4380   -0.4540   -1.7920 H         1 BGL1        0.0000
      5 C5         -0.5600    0.6690    1.1190 C.3       1 BGL1        0.0000
      6 H5         -0.2560    0.1530    2.0590 H         1 BGL1        0.0000
      7 O5          0.0330    0.0160   -0.0160 O.3       1 BGL1        0.0000
      8 C2          1.9450    1.4670   -0.0100 C.3       1 BGL1        0.0000
      9 H2          1.5600    1.9250   -0.9540 H         1 BGL1        0.0000
     10 O2          3.3750    1.5580   -0.0340 O.3       1 BGL1        0.0000
     11 HO2         3.7140    0.8890   -0.6430 H         1 BGL1        0.0000
     12 C3          1.3720    2.2440    1.1580 C.3       1 BGL1        0.0000
     13 H3          1.7670    1.7910    2.1020 H         1 BGL1        0.0000
     14 O3          1.7930    3.6060    1.1280 O.3       1 BGL1        0.0000
     15 HO3         2.7440    3.6000    0.9520 H         1 BGL1        0.0000
     16 C4         -0.1400    2.1380    1.1770 C.3       1 BGL1        0.0000
     17 H4         -0.5350    2.6650    0.2740 H         1 BGL1        0.0000
     18 O4         -0.6700    2.7760    2.3330 O.3       1 BGL1        0.0000
     19 HO4        -0.2710    3.6550    2.3780 H         1 BGL1        0.0000
     20 C6         -2.0640    0.5250    0.9020 C.2       1 BGL1        0.0000
     21 O61        -2.7010    0.0820    1.8930 O.co2     1 BGL1        0.0000
     22 O62        -2.4920    0.8790   -0.2280 O.co2     1 BGL1        0.0000
@<TRIPOS>BOND
     1    4    3 1 
     2    3    1 1 
     3    9    8 1 
     4   11   10 1 
     5   22   20 ar
     6   10    8 1 
     7    7    1 1 
     8    7    5 1 
     9    8    1 1 
    10    8   12 1 
    11    1    2 1 
    12   17   16 1 
    13   20    5 1 
    14   20   21 ar
    15   15   14 1 
    16    5   16 1 
    17    5    6 1 
    18   14   12 1 
    19   12   16 1 
    20   12   13 1 
    21   16   18 1 
    22   18   19 1 
