@<TRIPOS>MOLECULE
C:\Users\Praveer\PycharmProjects\pdb_to_mol2_converter\data\pdb\bglcna.pdb
   30    30     0     0     0
SMALL
GASTEIGER

@<TRIPOS>ATOM
      1 C1          1.4150    0.0030    0.0120 C.3       1 BGL1        0.0000
      2 H1          1.8040   -0.5050    0.9250 H         1 BGL1        0.0000
      3 O1          1.8960   -0.6910   -1.0980 O.3       1 BGL1        0.0000
      4 HO1         1.4720   -0.3130   -1.8710 H         1 BGL1        0.0000
      5 C5         -0.5340    0.5390    1.2330 C.3       1 BGL1        0.0000
      6 H5         -0.1140   -0.0120    2.1090 H         1 BGL1        0.0000
      7 O5         -0.0070   -0.0100    0.0130 O.3       1 BGL1        0.0000
      8 C2          1.9040    1.4370   -0.0370 C.3       1 BGL1        0.0000
      9 H2          1.4260    1.9140   -0.9310 H         1 BGL1        0.0000
     10 N           3.3520    1.5120   -0.2180 N.am      1 BGL1        0.0000
     11 HN          3.8630    0.6730   -0.0600 H         1 BGL1        0.0000
     12 C           3.9940    2.5860   -0.6920 C.2       1 BGL1        0.0000
     13 O           3.4070    3.6290   -0.9460 O.2       1 BGL1        0.0000
     14 CT          5.4790    2.4510   -0.8950 C.3       1 BGL1        0.0000
     15 HT1         5.6960    1.5810   -1.5480 H         1 BGL1        0.0000
     16 HT2         5.9840    2.3200    0.0840 H         1 BGL1        0.0000
     17 HT3         5.8640    3.3730   -1.3800 H         1 BGL1        0.0000
     18 C3          1.3840    2.1530    1.2000 C.3       1 BGL1        0.0000
     19 H3          1.8600    1.6860    2.0960 H         1 BGL1        0.0000
     20 O3          1.7360    3.5320    1.2040 O.3       1 BGL1        0.0000
     21 HO3         2.3060    3.7260    0.4350 H         1 BGL1        0.0000
     22 C4         -0.1220    2.0000    1.3190 C.3       1 BGL1        0.0000
     23 H4         -0.6000    2.5440    0.4670 H         1 BGL1        0.0000
     24 O4         -0.5980    2.5760    2.5270 O.3       1 BGL1        0.0000
     25 HO4        -0.1650    3.4360    2.6150 H         1 BGL1        0.0000
     26 C6         -2.0340    0.3380    1.2290 C.3       1 BGL1        0.0000
     27 H61        -2.4890    0.8680    0.3620 H         1 BGL1        0.0000
     28 H62        -2.4760    0.7620    2.1600 H         1 BGL1        0.0000
     29 O6         -2.3700   -1.0480    1.1630 O.3       1 BGL1        0.0000
     30 HO6        -1.9800   -1.4240    0.3650 H         1 BGL1        0.0000
@<TRIPOS>BOND
     1    4    3 1 
     2   15   14 1 
     3   17   14 1 
     4    3    1 1 
     5   13   12 2 
     6    9    8 1 
     7   14   12 1 
     8   14   16 1 
     9   12   10 am
    10   10   11 1 
    11   10    8 1 
    12    8    1 1 
    13    8   18 1 
    14    1    7 1 
    15    1    2 1 
    16    7    5 1 
    17   27   26 1 
    18   30   29 1 
    19   21   20 1 
    20   23   22 1 
    21   29   26 1 
    22   18   20 1 
    23   18   22 1 
    24   18   19 1 
    25   26    5 1 
    26   26   28 1 
    27    5   22 1 
    28    5    6 1 
    29   22   24 1 
    30   24   25 1 
