@<TRIPOS>MOLECULE
C:\Users\Praveer\PycharmProjects\pdb_to_mol2_converter\data\pdb\bglcn.pdb
   25    25     0     0     0
SMALL
GASTEIGER

@<TRIPOS>ATOM
      1 C1          1.3980    0.0380    0.0370 C.3       1 BGL1        0.0000
      2 H1          1.7260   -0.5040    0.9540 H         1 BGL1        0.0000
      3 O1          1.8600   -0.6780   -1.0710 O.3       1 BGL1        0.0000
      4 HO1         1.5190   -0.2370   -1.8500 H         1 BGL1        0.0000
      5 C5         -0.5610    0.7210    1.1800 C.3       1 BGL1        0.0000
      6 H5         -0.2040    0.1650    2.0810 H         1 BGL1        0.0000
      7 O5         -0.0240    0.1190   -0.0100 O.3       1 BGL1        0.0000
      8 C2          1.9880    1.4430    0.0330 C.3       1 BGL1        0.0000
      9 H2          1.6150    1.9600   -0.8870 H         1 BGL1        0.0000
     10 N2          3.4460    1.4820   -0.0270 N.3       1 BGL1        0.0000
     11 HN21        3.8760    0.5870   -0.1690 H         1 BGL1        0.0000
     12 HN22        3.8520    2.2330   -0.5450 H         1 BGL1        0.0000
     13 C3          1.4480    2.1950    1.2300 C.3       1 BGL1        0.0000
     14 H3          1.8310    1.6930    2.1520 H         1 BGL1        0.0000
     15 O3          1.9340    3.5340    1.2370 O.3       1 BGL1        0.0000
     16 HO3         2.8980    3.4820    1.2360 H         1 BGL1        0.0000
     17 C4         -0.0660    2.1580    1.2540 C.3       1 BGL1        0.0000
     18 H4         -0.4490    2.7060    0.3590 H         1 BGL1        0.0000
     19 O4         -0.5740    2.8010    2.4140 O.3       1 BGL1        0.0000
     20 HO4        -0.1260    3.6550    2.4830 H         1 BGL1        0.0000
     21 C6         -2.0680    0.6010    1.1210 C.3       1 BGL1        0.0000
     22 H61        -2.4590    1.1330    0.2250 H         1 BGL1        0.0000
     23 H62        -2.5220    1.0700    2.0240 H         1 BGL1        0.0000
     24 O6         -2.4760   -0.7670    1.0720 O.3       1 BGL1        0.0000
     25 HO6        -2.0750   -1.1810    0.2990 H         1 BGL1        0.0000
@<TRIPOS>BOND
     1    4    3 1 
     2    3    1 1 
     3    9    8 1 
     4   12   10 1 
     5   11   10 1 
     6   10    8 1 
     7    7    1 1 
     8    7    5 1 
     9    8    1 1 
    10    8   13 1 
    11    1    2 1 
    12   22   21 1 
    13   25   24 1 
    14   18   17 1 
    15   24   21 1 
    16   21    5 1 
    17   21   23 1 
    18    5   17 1 
    19    5    6 1 
    20   13   15 1 
    21   13   17 1 
    22   13   14 1 
    23   16   15 1 
    24   17   19 1 
    25   19   20 1 
