@<TRIPOS>MOLECULE
C:\Users\Praveer\PycharmProjects\pdb_to_mol2_converter\data\pdb\bglc.pdb
   24    24     0     0     0
SMALL
GASTEIGER

@<TRIPOS>ATOM
      1 C1          1.3960    0.0250   -0.0100 C.3       1 BGL1        0.0000
      2 H1          1.7350   -0.5020    0.9110 H         1 BGL1        0.0000
      3 O1          1.8500   -0.6950   -1.1240 O.3       1 BGL1        0.0000
      4 HO1         2.8090   -0.7230   -1.0690 H         1 BGL1        0.0000
      5 C5         -0.5360    0.7390    1.1780 C.3       1 BGL1        0.0000
      6 H5         -0.1590    0.1910    2.0750 H         1 BGL1        0.0000
      7 O5         -0.0270    0.1240   -0.0190 O.3       1 BGL1        0.0000
      8 C2          1.9620    1.4390   -0.0450 C.3       1 BGL1        0.0000
      9 H2          1.5630    1.9300   -0.9680 H         1 BGL1        0.0000
     10 O2          3.3960    1.4580   -0.1220 O.3       1 BGL1        0.0000
     11 HO2         3.6710    2.0090   -0.8640 H         1 BGL1        0.0000
     12 C3          1.4650    2.2250    1.1540 C.3       1 BGL1        0.0000
     13 H3          1.8670    1.7390    2.0770 H         1 BGL1        0.0000
     14 O3          1.9350    3.5740    1.1350 O.3       1 BGL1        0.0000
     15 HO3         2.8800    3.5720    1.3280 H         1 BGL1        0.0000
     16 C4         -0.0480    2.1790    1.2270 C.3       1 BGL1        0.0000
     17 H4         -0.4640    2.7160    0.3410 H         1 BGL1        0.0000
     18 O4         -0.5270    2.8240    2.4000 O.3       1 BGL1        0.0000
     19 HO4        -0.1430    3.7100    2.4180 H         1 BGL1        0.0000
     20 C6         -2.0440    0.6180    1.1540 C.3       1 BGL1        0.0000
     21 H61        -2.4550    1.1590    0.2720 H         1 BGL1        0.0000
     22 H62        -2.4790    1.0770    2.0710 H         1 BGL1        0.0000
     23 O6         -2.4480   -0.7490    1.0950 O.3       1 BGL1        0.0000
     24 HO6        -2.0360   -1.1530    0.3220 H         1 BGL1        0.0000
@<TRIPOS>BOND
     1    3    4 1 
     2    3    1 1 
     3    9    8 1 
     4   11   10 1 
     5   10    8 1 
     6    8    1 1 
     7    8   12 1 
     8    7    1 1 
     9    7    5 1 
    10    1    2 1 
    11   21   20 1 
    12   24   23 1 
    13   17   16 1 
    14   23   20 1 
    15   14   12 1 
    16   14   15 1 
    17   12   16 1 
    18   12   13 1 
    19   20    5 1 
    20   20   22 1 
    21    5   16 1 
    22    5    6 1 
    23   16   18 1 
    24   18   19 1 
