@<TRIPOS>MOLECULE
C:\Users\Praveer\PycharmProjects\pdb_to_mol2_converter\data\pdb\bglca.pdb
   22    22     0     0     0
SMALL
GASTEIGER

@<TRIPOS>ATOM
      1 C1          1.5240    0.0220    0.0930 C.3       1 BGL1        0.0000
      2 H1          1.8620   -0.4200    1.0610 H         1 BGL1        0.0000
      3 O1          2.0620   -0.7150   -0.9670 O.3       1 BGL1        0.0000
      4 HO1         1.4250   -0.5940   -1.6750 H         1 BGL1        0.0000
      5 C5         -0.5770    0.6320    1.0380 C.3       1 BGL1        0.0000
      6 H5         -0.4170    0.0490    1.9740 H         1 BGL1        0.0000
      7 O5          0.1180   -0.0470   -0.0400 O.3       1 BGL1        0.0000
      8 C2          1.9260    1.4810   -0.0140 C.3       1 BGL1        0.0000
      9 H2          1.4530    1.9060   -0.9330 H         1 BGL1        0.0000
     10 O2          3.3450    1.6490   -0.1450 O.3       1 BGL1        0.0000
     11 HO2         3.6590    0.9640   -0.7570 H         1 BGL1        0.0000
     12 C3          1.3800    2.2290    1.1870 C.3       1 BGL1        0.0000
     13 H3          1.8140    1.7800    2.1110 H         1 BGL1        0.0000
     14 O3          1.7920    3.5960    1.1360 O.3       1 BGL1        0.0000
     15 HO3         2.6990    3.5910    0.8180 H         1 BGL1        0.0000
     16 C4         -0.1300    2.0840    1.2450 C.3       1 BGL1        0.0000
     17 H4         -0.5500    2.6990    0.4080 H         1 BGL1        0.0000
     18 O4         -0.6720    2.5600    2.4750 O.3       1 BGL1        0.0000
     19 HO4        -1.5760    2.1760    2.5090 H         1 BGL1        0.0000
     20 C6         -2.0880    0.6970    0.7850 C.2       1 BGL1        0.0000
     21 O61        -2.7490    0.9130    1.8370 O.co2     1 BGL1        0.0000
     22 O62        -2.4880    0.6260   -0.4040 O.co2     1 BGL1        0.0000
@<TRIPOS>BOND
     1    4    3 1 
     2    3    1 1 
     3    9    8 1 
     4   11   10 1 
     5   22   20 ar
     6   10    8 1 
     7    7    1 1 
     8    7    5 1 
     9    8    1 1 
    10    8   12 1 
    11    1    2 1 
    12   17   16 1 
    13   20    5 1 
    14   20   21 ar
    15   15   14 1 
    16    5   16 1 
    17    5    6 1 
    18   14   12 1 
    19   12   16 1 
    20   12   13 1 
    21   16   18 1 
    22   18   19 1 
