@<TRIPOS>MOLECULE
C:\Users\Praveer\PycharmProjects\pdb_to_mol2_converter\data\pdb\bglcn0.pdb
   30    30     0     0     0
SMALL
GASTEIGER

@<TRIPOS>ATOM
      1 C1          1.4170    0.0550   -0.0360 C.3       1 BGL1        0.0000
      2 H1          1.8340   -0.5120    0.8290 H         1 BGL1        0.0000
      3 O1          1.8630   -0.5450   -1.2100 O.3       1 BGL1        0.0000
      4 HO1         1.4430   -0.0760   -1.9330 H         1 BGL1        0.0000
      5 C5         -0.5210    0.5340    1.2340 C.3       1 BGL1        0.0000
      6 H5         -0.0780   -0.0390    2.0850 H         1 BGL1        0.0000
      7 O5         -0.0040    0.0330   -0.0110 O.3       1 BGL1        0.0000
      8 C2          1.8760    1.4850   -0.0230 C.3       1 BGL1        0.0000
      9 H2          1.4060    1.9950   -0.9020 H         1 BGL1        0.0000
     10 N           3.3180    1.5730   -0.1370 N.am      1 BGL1        0.0000
     11 HN          3.8200    0.8970    0.3960 H         1 BGL1        0.0000
     12 C           3.9760    2.4790   -0.8980 C.2       1 BGL1        0.0000
     13 O           3.4060    3.3350   -1.5730 O.2       1 BGL1        0.0000
     14 CT          5.4920    2.3900   -0.8820 C.3       1 BGL1        0.0000
     15 HT1         5.8190    1.4220   -1.3190 H         1 BGL1        0.0000
     16 HT2         5.8700    2.4610    0.1590 H         1 BGL1        0.0000
     17 HT3         5.9280    3.2170   -1.4800 H         1 BGL1        0.0000
     18 C3          1.3710    2.1550    1.2270 C.3       1 BGL1        0.0000
     19 H3          1.8520    1.6740    2.1150 H         1 BGL1        0.0000
     20 O3          1.7340    3.5290    1.2200 O.3       1 BGL1        0.0000
     21 HO3         2.6920    3.6100    1.2720 H         1 BGL1        0.0000
     22 C4         -0.1310    1.9970    1.3590 C.3       1 BGL1        0.0000
     23 H4         -0.6190    2.5570    0.5240 H         1 BGL1        0.0000
     24 O4         -0.6000    2.5360    2.5880 O.3       1 BGL1        0.0000
     25 HO4        -0.2830    3.4470    2.6410 H         1 BGL1        0.0000
     26 C6         -2.0170    0.3110    1.2420 C.3       1 BGL1        0.0000
     27 H61        -2.4890    0.8560    0.3940 H         1 BGL1        0.0000
     28 H62        -2.4560    0.7020    2.1880 H         1 BGL1        0.0000
     29 O6         -2.3310   -1.0780    1.1400 O.3       1 BGL1        0.0000
     30 HO6        -1.9150   -1.4280    0.3430 H         1 BGL1        0.0000
@<TRIPOS>BOND
     1    4    3 1 
     2   13   12 2 
     3   17   14 1 
     4   15   14 1 
     5    3    1 1 
     6    9    8 1 
     7   12   14 1 
     8   12   10 am
     9   14   16 1 
    10   10    8 1 
    11   10   11 1 
    12    1    8 1 
    13    1    7 1 
    14    1    2 1 
    15    8   18 1 
    16    7    5 1 
    17   30   29 1 
    18   27   26 1 
    19   23   22 1 
    20   29   26 1 
    21   20   18 1 
    22   20   21 1 
    23   18   22 1 
    24   18   19 1 
    25    5   26 1 
    26    5   22 1 
    27    5    6 1 
    28   26   28 1 
    29   22   24 1 
    30   24   25 1 
