@<TRIPOS>MOLECULE
C:\Users\Praveer\PycharmProjects\pdb_to_mol2_converter\data\pdb\bglgl.pdb
   29    29     0     0     0
SMALL
GASTEIGER

@<TRIPOS>ATOM
      1 C1          1.3970    0.0470   -0.1010 C.3       1 BGL1        0.0000
      2 H1          1.9430   -0.5460    0.6700 H         1 BGL1        0.0000
      3 O1          1.7080   -0.4450   -1.3740 O.3       1 BGL1        0.0000
      4 HO1         1.2910   -1.3110   -1.4310 H         1 BGL1        0.0000
      5 C5         -0.4030    0.2910    1.4130 C.3       1 BGL1        0.0000
      6 H5          0.1450   -0.3600    2.1290 H         1 BGL1        0.0000
      7 O5         -0.0080   -0.0440    0.0700 O.3       1 BGL1        0.0000
      8 C2          1.7510    1.5200   -0.0100 C.3       1 BGL1        0.0000
      9 H2          1.1430    2.0620   -0.7770 H         1 BGL1        0.0000
     10 O2          3.1330    1.7630   -0.3050 O.3       1 BGL1        0.0000
     11 HO2         3.3130    1.3700   -1.1690 H         1 BGL1        0.0000
     12 C3          1.3750    2.0720    1.3540 C.3       1 BGL1        0.0000
     13 H3          2.0280    1.5780    2.1140 H         1 BGL1        0.0000
     14 O3          1.6440    3.4720    1.4050 O.3       1 BGL1        0.0000
     15 HO3         2.5590    3.5930    1.1240 H         1 BGL1        0.0000
     16 C4         -0.0730    1.7550    1.7180 C.3       1 BGL1        0.0000
     17 H4         -0.7230    2.4100    1.0860 H         1 BGL1        0.0000
     18 O4         -0.3350    2.0480    3.0900 O.3       1 BGL1        0.0000
     19 HO4        -1.2960    2.0450    3.2110 H         1 BGL1        0.0000
     20 C          -1.8750   -0.0080    1.6070 C.2       1 BGL1        0.0000
     21 O          -2.6370    0.7990    2.1420 O.2       1 BGL1        0.0000
     22 N          -2.2700   -1.2450    1.2760 N.am      1 BGL1        0.0000
     23 HN         -1.6770   -1.9380    0.8560 H         1 BGL1        0.0000
     24 CA         -3.5920   -1.7960    1.4410 C.3       1 BGL1        0.0000
     25 HA1        -4.2850   -1.2700    0.8010 H         1 BGL1        0.0000
     26 HA2        -3.8540   -1.8060    2.4880 H         1 BGL1        0.0000
     27 CT         -3.5080   -3.2490    0.9590 C.2       1 BGL1        0.0000
     28 OT1        -2.3920   -3.6740    0.5420 O.co2     1 BGL1        0.0000
     29 OT2        -4.5550   -3.9430    1.0030 O.co2     1 BGL1        0.0000
@<TRIPOS>BOND
     1    4    3 1 
     2    3    1 1 
     3   11   10 1 
     4    9    8 1 
     5   10    8 1 
     6    1    8 1 
     7    1    7 1 
     8    1    2 1 
     9    8   12 1 
    10    7    5 1 
    11   28   27 ar
    12   25   24 1 
    13   23   22 1 
    14   27   29 ar
    15   27   24 1 
    16   17   16 1 
    17   15   14 1 
    18   22   24 1 
    19   22   20 am
    20   12   14 1 
    21   12   16 1 
    22   12   13 1 
    23    5   20 1 
    24    5   16 1 
    25    5    6 1 
    26   24   26 1 
    27   20   21 2 
    28   16   18 1 
    29   18   19 1 
