@<TRIPOS>MOLECULE
C:\Users\Praveer\PycharmProjects\pdb_to_mol2_converter\data\pdb\bgqg.pdb
   60    63     0     0     0
SMALL
GASTEIGER

@<TRIPOS>ATOM
      1 N9          1.4650   -0.0050   -0.0270 N.ar      1 BGQ1        0.0000
      2 C8          1.9520    1.2960   -0.0080 C.ar      1 BGQ1        0.0000
      3 H8          3.0140    1.5090   -0.0220 H         1 BGQ1        0.0000
      4 C7          0.8940    2.1640    0.0540 C.ar      1 BGQ1        0.0000
      5 C5         -0.3010    1.3550    0.0410 C.ar      1 BGQ1        0.0000
      6 C6         -1.6640    1.6810    0.0670 C.ar      1 BGQ1        0.0000
      7 O6         -2.1670    2.8040    0.0920 O.2       1 BGQ1        0.0000
      8 N1         -2.4940    0.5730    0.0520 N.ar      1 BGQ1        0.0000
      9 H1         -3.4780    0.7400    0.0680 H         1 BGQ1        0.0000
     10 C2         -2.0650   -0.7390    0.0190 C.ar      1 BGQ1        0.0000
     11 N2         -3.0040   -1.6810    0.0280 N.pl3     1 BGQ1        0.0000
     12 H21        -3.9760   -1.4900    0.0500 H         1 BGQ1        0.0000
     13 H22        -2.6880   -2.6280    0.0250 H         1 BGQ1        0.0000
     14 N3         -0.7640   -1.0390   -0.0190 N.ar      1 BGQ1        0.0000
     15 C4          0.0830    0.0080   -0.0030 C.ar      1 BGQ1        0.0000
     16 C10         0.9610    3.6470    0.2090 C.3       1 BGQ1        0.0000
     17 H101        1.9680    4.0490   -0.0030 H         1 BGQ1        0.0000
     18 H102        0.6030    3.9590    1.2060 H         1 BGQ1        0.0000
     19 N11         0.0320    4.3050   -0.7750 N.4       1 BGQ1        0.0000
     20 H111       -0.9000    3.9650   -0.5600 H         1 BGQ1        0.0000
     21 H112        0.2250    3.9900   -1.7090 H         1 BGQ1        0.0000
     22 C12        -0.0600    5.7950   -0.8030 C.3       1 BGQ1        0.0000
     23 H12         0.4540    6.2070    0.0600 H         1 BGQ1        0.0000
     24 C15        -0.3950    7.2200   -2.6410 C.2       1 BGQ1        0.0000
     25 H15        -0.2130    7.8650   -3.4920 H         1 BGQ1        0.0000
     26 C16         0.4690    6.2880   -2.1180 C.2       1 BGQ1        0.0000
     27 H16         1.4570    6.0730   -2.5040 H         1 BGQ1        0.0000
     28 C14        -1.5660    7.4570   -1.7080 C.3       1 BGQ1        0.0000
     29 H14        -2.5110    7.4960   -2.2760 H         1 BGQ1        0.0000
     30 O14        -1.3950    8.6990   -1.0470 O.3       1 BGQ1        0.0000
     31 H14O       -2.2320    8.9560   -0.6120 H         1 BGQ1        0.0000
     32 C13        -1.5160    6.2150   -0.7910 C.3       1 BGQ1        0.0000
     33 H13        -2.1460    5.4480   -1.2790 H         1 BGQ1        0.0000
     34 O17        -1.9440    6.4480    0.5650 O.3       1 BGQ1        0.0000
     35 C17        -3.2150    5.8920    0.9350 C.3       1 BGQ1        0.0000
     36 H17        -3.5390    5.1500    0.1690 H         1 BGQ1        0.0000
     37 C21        -4.0630    7.9000    1.9940 C.3       1 BGQ1        0.0000
     38 H211       -5.1030    8.2300    2.2350 H         1 BGQ1        0.0000
     39 O22        -4.2500    6.8830    0.9840 O.3       1 BGQ1        0.0000
     40 C18        -3.1090    5.1520    2.2750 C.3       1 BGQ1        0.0000
     41 H18        -2.0270    5.0890    2.5410 H         1 BGQ1        0.0000
     42 O18        -3.5860    3.8050    2.1940 O.3       1 BGQ1        0.0000
     43 H18O       -3.0800    3.3310    1.5130 H         1 BGQ1        0.0000
     44 C19        -3.8240    5.8920    3.3910 C.3       1 BGQ1        0.0000
     45 H19        -4.9270    5.7940    3.2400 H         1 BGQ1        0.0000
     46 O19        -3.5100    5.3440    4.6710 O.3       1 BGQ1        0.0000
     47 H19O       -3.8320    4.4350    4.6740 H         1 BGQ1        0.0000
     48 C20        -3.4900    7.3570    3.3130 C.3       1 BGQ1        0.0000
     49 H20        -3.9780    7.8960    4.1570 H         1 BGQ1        0.0000
     50 O20        -2.0890    7.5630    3.4500 O.3       1 BGQ1        0.0000
     51 H20O       -1.8360    7.2320    4.3210 H         1 BGQ1        0.0000
     52 C23        -3.3530    9.1270    1.4450 C.3       1 BGQ1        0.0000
     53 H231       -2.2690    8.9050    1.3440 H         1 BGQ1        0.0000
     54 H232       -3.4500    9.9700    2.1670 H         1 BGQ1        0.0000
     55 O24        -3.8400    9.5290    0.1560 O.3       1 BGQ1        0.0000
     56 H24O       -4.7820    9.7260    0.1900 H         1 BGQ1        0.0000
     57 CM          2.2820   -1.2210   -0.0720 C.3       1 BGQ1        0.0000
     58 HM1         3.3720   -1.0010   -0.0820 H         1 BGQ1        0.0000
     59 HM2         2.0370   -1.8170   -0.9780 H         1 BGQ1        0.0000
     60 HM3         2.0660   -1.8580    0.8150 H         1 BGQ1        0.0000
@<TRIPOS>BOND
     1   25   24 1 
     2   24   26 2 
     3   24   28 1 
     4   27   26 1 
     5   29   28 1 
     6   26   22 1 
     7   21   19 1 
     8   28   30 1 
     9   28   32 1 
    10   33   32 1 
    11   30   31 1 
    12   59   57 1 
    13   22   32 1 
    14   22   19 1 
    15   22   23 1 
    16   32   34 1 
    17   19   20 1 
    18   19   16 1 
    19   58   57 1 
    20   57    1 1 
    21   57   60 1 
    22    1    2 ar
    23    1   15 ar
    24    3    2 1 
    25   14   15 ar
    26   14   10 ar
    27    2    4 ar
    28   17   16 1 
    29   15    5 ar
    30   10   11 1 
    31   10    8 ar
    32   13   11 1 
    33   11   12 1 
    34    5    4 ar
    35    5    6 ar
    36    8    6 ar
    37    8    9 1 
    38    4   16 1 
    39    6    7 2 
    40   55   56 1 
    41   55   52 1 
    42   36   35 1 
    43   16   18 1 
    44   34   35 1 
    45   35   39 1 
    46   35   40 1 
    47   39   37 1 
    48   53   52 1 
    49   52   37 1 
    50   52   54 1 
    51   43   42 1 
    52   37   38 1 
    53   37   48 1 
    54   42   40 1 
    55   40   41 1 
    56   40   44 1 
    57   45   44 1 
    58   48   44 1 
    59   48   50 1 
    60   48   49 1 
    61   44   46 1 
    62   50   51 1 
    63   46   47 1 
