@<TRIPOS>MOLECULE
C:\Users\Praveer\PycharmProjects\pdb_to_mol2_converter\data\pdb\bgula.pdb
   22    22     0     0     0
SMALL
GASTEIGER

@<TRIPOS>ATOM
      1 C1          1.5080   -0.0240    0.0060 C.3       1 BGU1        0.0000
      2 H1          1.8310   -0.5760   -0.9070 H         1 BGU1        0.0000
      3 O1          2.0530   -0.6950    1.1130 O.3       1 BGU1        0.0000
      4 HO1         1.8530   -0.1240    1.8660 H         1 BGU1        0.0000
      5 C5         -0.4820    0.7970    1.0700 C.3       1 BGU1        0.0000
      6 H5         -0.1960    0.3400    2.0410 H         1 BGU1        0.0000
      7 O5          0.0790    0.0060   -0.0110 O.3       1 BGU1        0.0000
      8 C2          2.0640    1.3980   -0.0750 C.3       1 BGU1        0.0000
      9 H2          1.7000    1.8300   -1.0380 H         1 BGU1        0.0000
     10 O2          3.4950    1.4330   -0.1230 O.3       1 BGU1        0.0000
     11 HO2         3.8090    0.8700    0.5960 H         1 BGU1        0.0000
     12 C3          1.5180    2.2620    1.0530 C.3       1 BGU1        0.0000
     13 H3          1.8610    3.3110    0.8690 H         1 BGU1        0.0000
     14 O3          2.0110    1.8730    2.3400 O.3       1 BGU1        0.0000
     15 HO3         2.3710    2.6480    2.7860 H         1 BGU1        0.0000
     16 C4          0.0110    2.2460    1.0300 C.3       1 BGU1        0.0000
     17 H4         -0.3890    2.7870    1.9210 H         1 BGU1        0.0000
     18 O4         -0.4490    2.9330   -0.1300 O.3       1 BGU1        0.0000
     19 HO4        -1.3060    2.4890   -0.3390 H         1 BGU1        0.0000
     20 C6         -2.0170    0.8040    1.0140 C.2       1 BGU1        0.0000
     21 O61        -2.5870    0.4010    2.0600 O.co2     1 BGU1        0.0000
     22 O62        -2.5190    1.2980   -0.0330 O.co2     1 BGU1        0.0000
@<TRIPOS>BOND
     1    9    8 1 
     2    2    1 1 
     3   19   18 1 
     4   18   16 1 
     5   10    8 1 
     6   10   11 1 
     7    8    1 1 
     8    8   12 1 
     9   22   20 ar
    10    7    1 1 
    11    7    5 1 
    12    1    3 1 
    13   13   12 1 
    14   20    5 1 
    15   20   21 ar
    16   16   12 1 
    17   16    5 1 
    18   16   17 1 
    19   12   14 1 
    20    5    6 1 
    21    3    4 1 
    22   14   15 1 
