@<TRIPOS>MOLECULE
C:\Users\Praveer\PycharmProjects\pdb_to_mol2_converter\data\pdb\bgul.pdb
   24    24     0     0     0
SMALL
GASTEIGER

@<TRIPOS>ATOM
      1 C1          1.3920   -0.0060   -0.0040 C.3       1 BGU1        0.0000
      2 H1          1.7050   -0.5330    0.9270 H         1 BGU1        0.0000
      3 O1          1.8460   -0.7450   -1.1040 O.3       1 BGU1        0.0000
      4 HO1         2.8020   -0.6390   -1.1290 H         1 BGU1        0.0000
      5 C5         -0.5320    0.7920    1.1290 C.3       1 BGU1        0.0000
      6 H5         -0.1370    0.3040    2.0530 H         1 BGU1        0.0000
      7 O5         -0.0340    0.1070   -0.0320 O.3       1 BGU1        0.0000
      8 C2          2.0140    1.3870   -0.0480 C.3       1 BGU1        0.0000
      9 H2          1.7190    1.8490   -1.0210 H         1 BGU1        0.0000
     10 O2          3.4470    1.3490   -0.0210 O.3       1 BGU1        0.0000
     11 HO2         3.7200    1.2910    0.9040 H         1 BGU1        0.0000
     12 C3          1.4700    2.2610    1.0700 C.3       1 BGU1        0.0000
     13 H3          1.8080    3.3110    0.8810 H         1 BGU1        0.0000
     14 O3          1.9870    1.8680    2.3430 O.3       1 BGU1        0.0000
     15 HO3         2.1570    2.6460    2.8880 H         1 BGU1        0.0000
     16 C4         -0.0410    2.2310    1.0830 C.3       1 BGU1        0.0000
     17 H4         -0.4130    2.7720    1.9850 H         1 BGU1        0.0000
     18 O4         -0.5620    2.9020   -0.0560 O.3       1 BGU1        0.0000
     19 HO4        -0.5750    2.2830   -0.7980 H         1 BGU1        0.0000
     20 C6         -2.0390    0.6680    1.1470 C.3       1 BGU1        0.0000
     21 H61        -2.4760    1.0510    0.1970 H         1 BGU1        0.0000
     22 H62        -2.4580    1.2730    1.9830 H         1 BGU1        0.0000
     23 O6         -2.4360   -0.6900    1.3320 O.3       1 BGU1        0.0000
     24 HO6        -2.0890   -1.2160    0.6020 H         1 BGU1        0.0000
@<TRIPOS>BOND
     1    4    3 1 
     2    3    1 1 
     3    9    8 1 
     4   19   18 1 
     5   18   16 1 
     6    8   10 1 
     7    8    1 1 
     8    8   12 1 
     9    7    1 1 
    10    7    5 1 
    11   10   11 1 
    12    1    2 1 
    13   21   20 1 
    14   24   23 1 
    15   13   12 1 
    16   12   16 1 
    17   12   14 1 
    18   16    5 1 
    19   16   17 1 
    20    5   20 1 
    21    5    6 1 
    22   20   23 1 
    23   20   22 1 
    24   14   15 1 
