@<TRIPOS>MOLECULE
C:\Users\Praveer\PycharmProjects\pdb_to_mol2_converter\data\pdb\bguln.pdb
   25    25     0     0     0
SMALL
GASTEIGER

@<TRIPOS>ATOM
      1 C1          1.4340    0.0160    0.0550 C.3       1 BGU1        0.0000
      2 H1          1.7720   -0.4950    0.9860 H         1 BGU1        0.0000
      3 O1          1.8640   -0.7160   -1.0580 O.3       1 BGU1        0.0000
      4 HO1         1.5000   -1.5990   -0.9710 H         1 BGU1        0.0000
      5 C5         -0.5300    0.7930    1.1370 C.3       1 BGU1        0.0000
      6 H5         -0.1550    0.3240    2.0790 H         1 BGU1        0.0000
      7 O5          0.0060    0.0880    0.0020 O.3       1 BGU1        0.0000
      8 C2          2.0350    1.4210   -0.0090 C.3       1 BGU1        0.0000
      9 H2          1.7010    1.8660   -0.9790 H         1 BGU1        0.0000
     10 N2          3.4940    1.4820   -0.0510 N.3       1 BGU1        0.0000
     11 HN21        3.8930    1.1120   -0.8910 H         1 BGU1        0.0000
     12 HN22        3.9690    1.2490    0.7940 H         1 BGU1        0.0000
     13 C3          1.4570    2.2780    1.0970 C.3       1 BGU1        0.0000
     14 H3          1.7890    3.3320    0.9330 H         1 BGU1        0.0000
     15 O3          1.9460    1.8660    2.3720 O.3       1 BGU1        0.0000
     16 HO3         2.7420    2.3680    2.5740 H         1 BGU1        0.0000
     17 C4         -0.0520    2.2360    1.0840 C.3       1 BGU1        0.0000
     18 H4         -0.4390    2.7820    1.9770 H         1 BGU1        0.0000
     19 O4         -0.5640    2.8930   -0.0690 O.3       1 BGU1        0.0000
     20 HO4        -0.4890    2.2940   -0.8210 H         1 BGU1        0.0000
     21 C6         -2.0390    0.6610    1.1250 C.3       1 BGU1        0.0000
     22 H61        -2.4600    1.0470    0.1700 H         1 BGU1        0.0000
     23 H62        -2.4730    1.2640    1.9550 H         1 BGU1        0.0000
     24 O6         -2.4400   -0.6970    1.3010 O.3       1 BGU1        0.0000
     25 HO6        -2.1320   -1.2130    0.5480 H         1 BGU1        0.0000
@<TRIPOS>BOND
     1    3    4 1 
     2    3    1 1 
     3    9    8 1 
     4   11   10 1 
     5   20   19 1 
     6   19   17 1 
     7   10    8 1 
     8   10   12 1 
     9    8    1 1 
    10    8   13 1 
    11    7    1 1 
    12    7    5 1 
    13    1    2 1 
    14   22   21 1 
    15   25   24 1 
    16   14   13 1 
    17   17   13 1 
    18   17    5 1 
    19   17   18 1 
    20   13   15 1 
    21   21    5 1 
    22   21   24 1 
    23   21   23 1 
    24    5    6 1 
    25   15   16 1 
