@<TRIPOS>MOLECULE
C:\Users\Praveer\PycharmProjects\pdb_to_mol2_converter\data\pdb\bgulna.pdb
   30    30     0     0     0
SMALL
GASTEIGER

@<TRIPOS>ATOM
      1 C1          1.4180   -0.0410    0.1120 C.3       1 BGU1        0.0000
      2 H1          1.7180   -0.4950    1.0850 H         1 BGU1        0.0000
      3 O1          1.8900   -0.8480   -0.9270 O.3       1 BGU1        0.0000
      4 HO1         1.4490   -1.6970   -0.8440 H         1 BGU1        0.0000
      5 C5         -0.5430    0.7940    1.1330 C.3       1 BGU1        0.0000
      6 H5         -0.1890    0.3390    2.0890 H         1 BGU1        0.0000
      7 O5         -0.0030    0.0580    0.0190 O.3       1 BGU1        0.0000
      8 C2          2.0270    1.3430   -0.0430 C.3       1 BGU1        0.0000
      9 H2          1.6710    1.7470   -1.0230 H         1 BGU1        0.0000
     10 N           3.4830    1.3190   -0.1320 N.am      1 BGU1        0.0000
     11 HN          3.8970    0.4170   -0.0810 H         1 BGU1        0.0000
     12 C           4.2490    2.3880   -0.3730 C.2       1 BGU1        0.0000
     13 O           3.7930    3.5160   -0.5050 O.2       1 BGU1        0.0000
     14 CT          5.7300    2.1380   -0.4750 C.3       1 BGU1        0.0000
     15 HT1         5.9250    1.2430   -1.1010 H         1 BGU1        0.0000
     16 HT2         6.1560    1.9880    0.5380 H         1 BGU1        0.0000
     17 HT3         6.2140    3.0210   -0.9440 H         1 BGU1        0.0000
     18 C3          1.4800    2.2390    1.0510 C.3       1 BGU1        0.0000
     19 H3          1.8060    3.2930    0.8800 H         1 BGU1        0.0000
     20 O3          1.9860    1.8310    2.3160 O.3       1 BGU1        0.0000
     21 HO3         2.7580    2.3690    2.5280 H         1 BGU1        0.0000
     22 C4         -0.0330    2.2250    1.0610 C.3       1 BGU1        0.0000
     23 H4         -0.3950    2.7860    1.9550 H         1 BGU1        0.0000
     24 O4         -0.5510    2.8840   -0.0880 O.3       1 BGU1        0.0000
     25 HO4        -0.4330    2.3120   -0.8550 H         1 BGU1        0.0000
     26 C6         -2.0540    0.6960    1.1110 C.3       1 BGU1        0.0000
     27 H61        -2.4610    1.0730    0.1460 H         1 BGU1        0.0000
     28 H62        -2.4800    1.3230    1.9280 H         1 BGU1        0.0000
     29 O6         -2.4850   -0.6510    1.3080 O.3       1 BGU1        0.0000
     30 HO6        -2.2160   -1.1760    0.5470 H         1 BGU1        0.0000
@<TRIPOS>BOND
     1   15   14 1 
     2    9    8 1 
     3   17   14 1 
     4    3    4 1 
     5    3    1 1 
     6   25   24 1 
     7   13   12 2 
     8   14   12 1 
     9   14   16 1 
    10   12   10 am
    11   10   11 1 
    12   10    8 1 
    13   24   22 1 
    14    8    1 1 
    15    8   18 1 
    16    7    1 1 
    17    7    5 1 
    18    1    2 1 
    19   27   26 1 
    20   30   29 1 
    21   19   18 1 
    22   18   22 1 
    23   18   20 1 
    24   22    5 1 
    25   22   23 1 
    26   26    5 1 
    27   26   29 1 
    28   26   28 1 
    29    5    6 1 
    30   20   21 1 
