@<TRIPOS>MOLECULE
C:\Users\Praveer\PycharmProjects\pdb_to_mol2_converter\data\pdb\bh2u.pdb
   17    17     0     0     0
SMALL
GASTEIGER

@<TRIPOS>ATOM
      1 N1          1.4590    0.0060    0.0070 N.am      1 BH21        0.0000
      2 C2          2.1340    1.2040    0.0210 C.2       1 BH21        0.0000
      3 O2          3.3300    1.3450   -0.2010 O.2       1 BH21        0.0000
      4 N3          1.3740    2.2890    0.3290 N.am      1 BH21        0.0000
      5 H3          1.8030    3.1720    0.2130 H         1 BH21        0.0000
      6 C4          0.1250    2.2910    0.7700 C.2       1 BH21        0.0000
      7 O4         -0.4690    3.3420    0.9640 O.2       1 BH21        0.0000
      8 C5         -0.5330    0.9860    1.0240 C.3       1 BH21        0.0000
      9 H51        -1.6350    1.0970    0.9450 H         1 BH21        0.0000
     10 H52        -0.2720    0.6450    2.0500 H         1 BH21        0.0000
     11 C6          0.0050    0.0070   -0.0140 C.3       1 BH21        0.0000
     12 H61        -0.3640   -1.0150    0.2320 H         1 BH21        0.0000
     13 H62        -0.3510    0.2520   -1.0400 H         1 BH21        0.0000
     14 CM          2.1540   -1.2080   -0.3800 C.3       1 BH21        0.0000
     15 HM1         3.2480   -1.0890   -0.2110 H         1 BH21        0.0000
     16 HM2         1.9410   -1.3880   -1.4550 H         1 BH21        0.0000
     17 HM3         1.7620   -2.0340    0.2500 H         1 BH21        0.0000
@<TRIPOS>BOND
     1   16   14 1 
     2   13   11 1 
     3   14   15 1 
     4   14    1 1 
     5   14   17 1 
     6    3    2 2 
     7   11    1 1 
     8   11   12 1 
     9   11    8 1 
    10    1    2 am
    11    2    4 am
    12    5    4 1 
    13    4    6 am
    14    6    7 2 
    15    6    8 1 
    16    9    8 1 
    17    8   10 1 
