@<TRIPOS>MOLECULE
C:\Users\Praveer\PycharmProjects\pdb_to_mol2_converter\data\pdb\bhcu.pdb
   21    21     0     0     0
SMALL
GASTEIGER

@<TRIPOS>ATOM
      1 N1          1.3680    0.0020    0.0050 N.ar      1 BHC1        0.0000
      2 C2          2.0690    1.2180    0.0000 C.ar      1 BHC1        0.0000
      3 O2          3.2980    1.2870    0.0000 O.2       1 BHC1        0.0000
      4 N3          1.3080    2.3510    0.0010 N.ar      1 BHC1        0.0000
      5 H3          1.7920    3.2250   -0.0100 H         1 BHC1        0.0000
      6 C4         -0.0680    2.4210    0.0160 C.ar      1 BHC1        0.0000
      7 O4         -0.5510    3.5510    0.0390 O.2       1 BHC1        0.0000
      8 C5         -0.7760    1.1480    0.0170 C.ar      1 BHC1        0.0000
      9 C6         -0.0050    0.0030    0.0090 C.ar      1 BHC1        0.0000
     10 H6         -0.4920   -0.9750   -0.0400 H         1 BHC1        0.0000
     11 C7         -2.2880    1.0150    0.0830 C.3       1 BHC1        0.0000
     12 H7         -2.5250    0.5050    1.0400 H         1 BHC1        0.0000
     13 O7         -3.0430    2.2340    0.1280 O.3       1 BHC1        0.0000
     14 H7O        -3.8640    1.9320   -0.3020 H         1 BHC1        0.0000
     15 C8         -2.8850    0.0600   -1.0110 C.2       1 BHC1        0.0000
     16 O81        -2.1010   -0.6820   -1.6550 O.co2     1 BHC1        0.0000
     17 O82        -4.1420    0.1120   -1.1190 O.co2     1 BHC1        0.0000
     18 CM          2.1350   -1.2560    0.0010 C.3       1 BHC1        0.0000
     19 HM1         2.7920   -1.3310    0.8980 H         1 BHC1        0.0000
     20 HM2         2.7900   -1.3210   -0.8990 H         1 BHC1        0.0000
     21 HM3         1.4750   -2.1540   -0.0080 H         1 BHC1        0.0000
@<TRIPOS>BOND
     1   16   15 ar
     2   17   15 ar
     3   15   11 1 
     4   20   18 1 
     5   14   13 1 
     6   10    9 1 
     7    5    4 1 
     8   21   18 1 
     9    2    3 2 
    10    2    4 ar
    11    2    1 ar
    12    4    6 ar
    13   18    1 1 
    14   18   19 1 
    15    1    9 ar
    16    9    8 ar
    17    6    8 ar
    18    6    7 2 
    19    8   11 1 
    20   11   13 1 
    21   11   12 1 
