@<TRIPOS>MOLECULE
C:\Users\Praveer\PycharmProjects\pdb_to_mol2_converter\data\pdb\bhep.pdb
   28    28     0     0     0
SMALL
GASTEIGER

@<TRIPOS>ATOM
      1 C1          1.4460   -0.0100   -0.0010 C.3       1 BHE1        0.0000
      2 H1          1.7750   -0.5160    0.9370 H         1 BHE1        0.0000
      3 O1          1.9390   -0.7450   -1.0800 O.3       1 BHE1        0.0000
      4 HO1         1.5510   -0.3370   -1.8590 H         1 BHE1        0.0000
      5 C5         -0.5600    0.6620    1.0770 C.3       1 BHE1        0.0000
      6 H5         -0.2560    0.1070    1.9970 H         1 BHE1        0.0000
      7 O5          0.0230    0.0120   -0.0690 O.3       1 BHE1        0.0000
      8 C2          1.9860    1.4140   -0.0460 C.3       1 BHE1        0.0000
      9 H2          3.0980    1.3600    0.0530 H         1 BHE1        0.0000
     10 O2          1.6910    2.1160   -1.2660 O.3       1 BHE1        0.0000
     11 HO2         2.4720    2.1340   -1.8330 H         1 BHE1        0.0000
     12 C3          1.4550    2.1610    1.1610 C.3       1 BHE1        0.0000
     13 H3          1.8430    1.6540    2.0790 H         1 BHE1        0.0000
     14 O3          1.9300    3.5050    1.1990 O.3       1 BHE1        0.0000
     15 HO3         1.7940    3.8860    0.3210 H         1 BHE1        0.0000
     16 C4         -0.0610    2.1000    1.2060 C.3       1 BHE1        0.0000
     17 H4         -0.4640    2.6890    0.3470 H         1 BHE1        0.0000
     18 O4         -0.5510    2.6720    2.4130 O.3       1 BHE1        0.0000
     19 HO4        -0.1470    3.5430    2.5150 H         1 BHE1        0.0000
     20 C6         -2.0710    0.5550    0.9500 C.3       1 BHE1        0.0000
     21 H6         -2.5460    1.0930    1.8070 H         1 BHE1        0.0000
     22 O6         -2.5210    1.1600   -0.2710 O.3       1 BHE1        0.0000
     23 HO6        -1.8670    0.8900   -0.9280 H         1 BHE1        0.0000
     24 C7         -2.5230   -0.8920    0.9800 C.3       1 BHE1        0.0000
     25 H71        -2.1390   -1.4020    1.8910 H         1 BHE1        0.0000
     26 H72        -2.1390   -1.4410    0.0900 H         1 BHE1        0.0000
     27 O7         -3.9510   -0.9530    0.9950 O.3       1 BHE1        0.0000
     28 HO7        -4.2270   -0.2520    0.3900 H         1 BHE1        0.0000
@<TRIPOS>BOND
     1    4    3 1 
     2   11   10 1 
     3   10    8 1 
     4    3    1 1 
     5   23   22 1 
     6   22   20 1 
     7    7    1 1 
     8    7    5 1 
     9    8    1 1 
    10    8    9 1 
    11    8   12 1 
    12    1    2 1 
    13   26   24 1 
    14   15   14 1 
    15   17   16 1 
    16   28   27 1 
    17   20   24 1 
    18   20    5 1 
    19   20   21 1 
    20   24   27 1 
    21   24   25 1 
    22    5   16 1 
    23    5    6 1 
    24   12   14 1 
    25   12   16 1 
    26   12   13 1 
    27   16   18 1 
    28   18   19 1 
