@<TRIPOS>MOLECULE
C:\Users\Praveer\PycharmProjects\pdb_to_mol2_converter\data\pdb\bhia.pdb
   32    33     0     0     0
SMALL
GASTEIGER

@<TRIPOS>ATOM
      1 N9          1.3760    0.0170    0.0080 N.ar      1 BHI1        0.0000
      2 C8          1.7520    1.3390   -0.1450 C.ar      1 BHI1        0.0000
      3 H8          2.8020    1.6300   -0.2100 H         1 BHI1        0.0000
      4 N7          0.7350    2.1920   -0.1980 N.ar      1 BHI1        0.0000
      5 C5         -0.3850    1.3590   -0.0700 C.ar      1 BHI1        0.0000
      6 C6         -1.7620    1.6330   -0.0600 C.3       1 BHI1        0.0000
      7 N6         -2.2190    2.9220   -0.2270 N.3       1 BHI1        0.0000
      8 H6         -1.4900    3.6220   -0.3620 H         1 BHI1        0.0000
      9 N1         -2.6250    0.5750    0.0980 N.2       1 BHI1        0.0000
     10 C2         -2.1490   -0.6940    0.2260 C.2       1 BHI1        0.0000
     11 H2         -2.8790   -1.5010    0.3460 H         1 BHI1        0.0000
     12 N3         -0.8350   -1.0310    0.2070 N.pl3     1 BHI1        0.0000
     13 C4         -0.0060    0.0170    0.0620 C.ar      1 BHI1        0.0000
     14 C12        -3.6440    3.3550   -0.2390 C.3       1 BHI1        0.0000
     15 H121       -4.3160    2.4890   -0.0480 H         1 BHI1        0.0000
     16 H122       -3.8870    3.7460   -1.2550 H         1 BHI1        0.0000
     17 C13        -3.8540    4.4240    0.8060 C.2       1 BHI1        0.0000
     18 H13        -2.9380    4.8240    1.2660 H         1 BHI1        0.0000
     19 C14        -5.0320    4.9910    1.1470 C.2       1 BHI1        0.0000
     20 C15        -6.3310    4.5890    0.4860 C.3       1 BHI1        0.0000
     21 H151       -6.2360    3.7350   -0.2200 H         1 BHI1        0.0000
     22 H152       -6.7480    5.4420   -0.0920 H         1 BHI1        0.0000
     23 H153       -7.0810    4.2950    1.2520 H         1 BHI1        0.0000
     24 C16        -5.0810    6.0680    2.2090 C.3       1 BHI1        0.0000
     25 H161       -4.0800    6.2670    2.6590 H         1 BHI1        0.0000
     26 H162       -5.7570    5.7670    3.0410 H         1 BHI1        0.0000
     27 O16        -5.5420    7.2960    1.6500 O.3       1 BHI1        0.0000
     28 H16O       -6.4900    7.2070    1.5170 H         1 BHI1        0.0000
     29 CM          2.2530   -1.1630    0.0910 C.3       1 BHI1        0.0000
     30 HM1         3.3300   -0.8910    0.0690 H         1 BHI1        0.0000
     31 HM2         2.0490   -1.8470   -0.7620 H         1 BHI1        0.0000
     32 HM3         2.0530   -1.7260    1.0300 H         1 BHI1        0.0000
@<TRIPOS>BOND
     1   16   14 1 
     2   31   29 1 
     3    8    7 1 
     4   14    7 1 
     5   14   15 1 
     6   14   17 1 
     7    7    6 1 
     8   21   20 1 
     9    3    2 1 
    10    4    2 ar
    11    4    5 ar
    12    2    1 ar
    13   22   20 1 
    14    5    6 1 
    15    5   13 ar
    16    6    9 1 
    17    1   13 ar
    18    1   29 1 
    19   13   12 1 
    20   30   29 1 
    21   29   32 1 
    22    9   10 2 
    23   12   10 1 
    24   10   11 1 
    25   20   19 1 
    26   20   23 1 
    27   17   19 2 
    28   17   18 1 
    29   19   24 1 
    30   28   27 1 
    31   27   24 1 
    32   24   25 1 
    33   24   26 1 
