@<TRIPOS>MOLECULE
C:\Users\Praveer\PycharmProjects\pdb_to_mol2_converter\data\pdb\bhmc.pdb
   20    20     0     0     0
SMALL
GASTEIGER

@<TRIPOS>ATOM
      1 N1          1.3630    0.0050    0.0080 N.ar      1 BHM1        0.0000
      2 C2          2.0630    1.2460    0.0220 C.ar      1 BHM1        0.0000
      3 O2          3.2940    1.2370    0.0550 O.2       1 BHM1        0.0000
      4 N3          1.3510    2.4050   -0.0020 N.ar      1 BHM1        0.0000
      5 C4          0.0090    2.3970   -0.0440 C.ar      1 BHM1        0.0000
      6 N4         -0.6130    3.5790   -0.1250 N.pl3     1 BHM1        0.0000
      7 H41        -1.5840    3.6380   -0.3390 H         1 BHM1        0.0000
      8 H42        -0.0330    4.3890   -0.1440 H         1 BHM1        0.0000
      9 C5         -0.7350    1.1550   -0.0180 C.ar      1 BHM1        0.0000
     10 C6         -0.0010   -0.0030   -0.0040 C.ar      1 BHM1        0.0000
     11 H6         -0.4820   -0.9810    0.0050 H         1 BHM1        0.0000
     12 C7         -2.2330    1.1500    0.0350 C.3       1 BHM1        0.0000
     13 H71        -2.5580    1.7240    0.9340 H         1 BHM1        0.0000
     14 H72        -2.5850    0.0970    0.1390 H         1 BHM1        0.0000
     15 O7         -2.7910    1.7150   -1.1500 O.3       1 BHM1        0.0000
     16 H7O        -3.7490    1.6110   -1.1170 H         1 BHM1        0.0000
     17 CM          2.1320   -1.2520    0.0280 C.3       1 BHM1        0.0000
     18 HM1         2.7740   -1.3070    0.9370 H         1 BHM1        0.0000
     19 HM2         2.8090   -1.3120   -0.8560 H         1 BHM1        0.0000
     20 HM3         1.4840   -2.1560    0.0170 H         1 BHM1        0.0000
@<TRIPOS>BOND
     1   15   16 1 
     2   15   12 1 
     3   19   17 1 
     4    7    6 1 
     5    8    6 1 
     6    6    5 1 
     7    5    9 ar
     8    5    4 ar
     9    9   10 ar
    10    9   12 1 
    11   10   11 1 
    12   10    1 ar
    13    4    2 ar
    14    1    2 ar
    15    1   17 1 
    16   20   17 1 
    17    2    3 2 
    18   17   18 1 
    19   12   14 1 
    20   12   13 1 
