@<TRIPOS>MOLECULE
C:\Users\Praveer\PycharmProjects\pdb_to_mol2_converter\data\pdb\bhna.pdb
   37    38     0     0     0
SMALL
GASTEIGER

@<TRIPOS>ATOM
      1 N9          1.3650    0.0140    0.0050 N.ar      1 BHN1        0.0000
      2 C8          1.7440    1.3430   -0.0010 C.ar      1 BHN1        0.0000
      3 H8          2.7950    1.6400   -0.0070 H         1 BHN1        0.0000
      4 N7          0.7230    2.1910    0.0070 N.ar      1 BHN1        0.0000
      5 C5         -0.4010    1.3550    0.0160 C.ar      1 BHN1        0.0000
      6 C6         -1.7730    1.6270    0.0260 C.3       1 BHN1        0.0000
      7 N6         -2.0910    2.9780    0.0050 N.am      1 BHN1        0.0000
      8 H6         -1.3100    3.5630   -0.1500 H         1 BHN1        0.0000
      9 N1         -2.6450    0.5700    0.0440 N.2       1 BHN1        0.0000
     10 C2         -2.1710   -0.7000    0.0370 C.2       1 BHN1        0.0000
     11 H2         -2.9020   -1.5130    0.0470 H         1 BHN1        0.0000
     12 N3         -0.8560   -1.0370    0.0270 N.pl3     1 BHN1        0.0000
     13 C4         -0.0200    0.0120    0.0160 C.ar      1 BHN1        0.0000
     14 C10        -3.3250    3.5320   -0.0120 C.2       1 BHN1        0.0000
     15 O10        -4.3980    2.9510    0.0600 O.2       1 BHN1        0.0000
     16 N11        -3.1880    4.8680   -0.2020 N.am      1 BHN1        0.0000
     17 H11        -2.2830    5.2040   -0.4550 H         1 BHN1        0.0000
     18 C12        -4.1470    5.6600   -0.9570 C.3       1 BHN1        0.0000
     19 H12        -5.0090    5.0400   -1.2860 H         1 BHN1        0.0000
     20 C13        -3.3980    6.1370   -2.2170 C.2       1 BHN1        0.0000
     21 ODA        -4.0690    6.2260   -3.2760 O.co2     1 BHN1        0.0000
     22 ODB        -2.1700    6.3850   -2.0540 O.co2     1 BHN1        0.0000
     23 C14        -4.6530    6.8930   -0.2060 C.3       1 BHN1        0.0000
     24 H14        -3.7840    7.5450    0.0430 H         1 BHN1        0.0000
     25 O14        -5.2650    6.5040    1.0230 O.3       1 BHN1        0.0000
     26 H14O       -5.8930    5.8220    0.7760 H         1 BHN1        0.0000
     27 C15        -5.6810    7.7250   -1.0170 C.3       1 BHN1        0.0000
     28 H151       -6.5330    7.0720   -1.3020 H         1 BHN1        0.0000
     29 H152       -5.1980    8.0580   -1.9640 H         1 BHN1        0.0000
     30 C16        -6.2000    8.9770   -0.2900 C.3       1 BHN1        0.0000
     31 H161       -5.3490    9.6350   -0.0120 H         1 BHN1        0.0000
     32 H162       -6.7420    8.6940    0.6370 H         1 BHN1        0.0000
     33 H163       -6.8880    9.5490   -0.9480 H         1 BHN1        0.0000
     34 CM          2.2400   -1.1680    0.0030 C.3       1 BHN1        0.0000
     35 HM1         3.3180   -0.8940    0.0030 H         1 BHN1        0.0000
     36 HM2         2.0400   -1.7910   -0.8970 H         1 BHN1        0.0000
     37 HM3         2.0400   -1.7950    0.8990 H         1 BHN1        0.0000
@<TRIPOS>BOND
     1   21   20 ar
     2   20   22 ar
     3   20   18 1 
     4   29   27 1 
     5   28   27 1 
     6   19   18 1 
     7   27   30 1 
     8   27   23 1 
     9   18   23 1 
    10   18   16 1 
    11   33   30 1 
    12   36   34 1 
    13   17   16 1 
    14   30   31 1 
    15   30   32 1 
    16   23   24 1 
    17   23   25 1 
    18   16   14 am
    19    8    7 1 
    20   14    7 am
    21   14   15 2 
    22    3    2 1 
    23    2    1 ar
    24    2    4 ar
    25   34   35 1 
    26   34    1 1 
    27   34   37 1 
    28    7    6 1 
    29    1   13 ar
    30    4    5 ar
    31    5   13 ar
    32    5    6 1 
    33   13   12 1 
    34    6    9 1 
    35   12   10 1 
    36   10    9 2 
    37   10   11 1 
    38   26   25 1 
