@<TRIPOS>MOLECULE
C:\Users\Praveer\PycharmProjects\pdb_to_mol2_converter\data\pdb\bhwg.pdb
   51    53     0     0     0
SMALL
GASTEIGER

@<TRIPOS>ATOM
      1 N9          1.4030   -0.0080   -0.0250 N.ar      1 BHW1        0.0000
      2 C8          1.7810    1.3150   -0.0530 C.ar      1 BHW1        0.0000
      3 H8          2.8290    1.6180   -0.0570 H         1 BHW1        0.0000
      4 N7          0.7600    2.1500   -0.0740 N.ar      1 BHW1        0.0000
      5 C5         -0.3750    1.3450   -0.0610 C.ar      1 BHW1        0.0000
      6 C6         -1.7420    1.7100   -0.1080 C.ar      1 BHW1        0.0000
      7 O6         -2.1430    2.8830   -0.1060 O.2       1 BHW1        0.0000
      8 N1         -2.6310    0.5930   -0.1900 N.ar      1 BHW1        0.0000
      9 C2         -2.2390   -0.7540   -0.1260 C.ar      1 BHW1        0.0000
     10 N2         -3.3070   -1.5700   -0.1950 N.ar      1 BHW1        0.0000
     11 N3         -0.8900   -1.0790    0.0220 N.ar      1 BHW1        0.0000
     12 C4          0.0070   -0.0040   -0.0200 C.ar      1 BHW1        0.0000
     13 C12        -4.0140    0.5910   -0.3360 C.ar      1 BHW1        0.0000
     14 C11        -4.3990   -0.7330   -0.3030 C.ar      1 BHW1        0.0000
     15 C3         -0.5510   -2.4770    0.3470 C.3       1 BHW1        0.0000
     16 H31        -0.0280   -2.9690   -0.5050 H         1 BHW1        0.0000
     17 H32        -1.4450   -3.1020    0.5760 H         1 BHW1        0.0000
     18 H33         0.1100   -2.5400    1.2410 H         1 BHW1        0.0000
     19 C10        -5.7160   -1.4360   -0.3670 C.3       1 BHW1        0.0000
     20 H101       -5.7300   -2.2650    0.3730 H         1 BHW1        0.0000
     21 H102       -5.8610   -1.8670   -1.3790 H         1 BHW1        0.0000
     22 H103       -6.5500   -0.7510   -0.1240 H         1 BHW1        0.0000
     23 C13        -4.8230    1.8840   -0.5150 C.3       1 BHW1        0.0000
     24 H131       -4.3480    2.4690   -1.3370 H         1 BHW1        0.0000
     25 H132       -4.6760    2.4770    0.4150 H         1 BHW1        0.0000
     26 C14        -6.3490    1.8600   -0.8280 C.3       1 BHW1        0.0000
     27 H14        -6.8900    1.3930    0.0300 H         1 BHW1        0.0000
     28 O14        -6.5890    1.0970   -2.0040 O.3       1 BHW1        0.0000
     29 H14O       -6.0520    0.3010   -1.9080 H         1 BHW1        0.0000
     30 C15        -6.9030    3.2570   -1.0510 C.3       1 BHW1        0.0000
     31 H15        -6.3860    3.7180   -1.9250 H         1 BHW1        0.0000
     32 N20        -8.3260    3.2450   -1.3410 N.am      1 BHW1        0.0000
     33 H20        -8.6520    2.4370   -1.8280 H         1 BHW1        0.0000
     34 C21        -9.0050    4.4090   -1.5310 C.2       1 BHW1        0.0000
     35 O22        -8.5200    5.5320   -1.4940 O.2       1 BHW1        0.0000
     36 O23       -10.3010    4.1380   -1.7780 O.3       1 BHW1        0.0000
     37 C24       -11.0910    5.3100   -2.0370 C.3       1 BHW1        0.0000
     38 H241      -10.7850    5.7720   -3.0020 H         1 BHW1        0.0000
     39 H242      -10.9850    6.0590   -1.2180 H         1 BHW1        0.0000
     40 H243      -12.1620    5.0260   -2.1070 H         1 BHW1        0.0000
     41 C16        -6.5380    4.0690    0.2080 C.2       1 BHW1        0.0000
     42 O17        -6.9100    3.8130    1.3430 O.2       1 BHW1        0.0000
     43 O18        -5.6540    5.0280   -0.1020 O.3       1 BHW1        0.0000
     44 C19        -5.1710    5.7440    1.0460 C.3       1 BHW1        0.0000
     45 H191       -4.6410    5.0590    1.7450 H         1 BHW1        0.0000
     46 H192       -6.0090    6.2380    1.5860 H         1 BHW1        0.0000
     47 H193       -4.4530    6.5280    0.7200 H         1 BHW1        0.0000
     48 CM          2.3130   -1.1650   -0.0020 C.3       1 BHW1        0.0000
     49 HM1         2.2100   -1.7310    0.9490 H         1 BHW1        0.0000
     50 HM2         3.3780   -0.8530   -0.0920 H         1 BHW1        0.0000
     51 HM3         2.0930   -1.8520   -0.8480 H         1 BHW1        0.0000
@<TRIPOS>BOND
     1   38   37 1 
     2   40   37 1 
     3   37   36 1 
     4   37   39 1 
     5   28   29 1 
     6   28   26 1 
     7   31   30 1 
     8   33   32 1 
     9   36   34 1 
    10   34   35 2 
    11   34   32 am
    12   21   19 1 
    13   32   30 1 
    14   24   23 1 
    15   30   26 1 
    16   30   41 1 
    17   51   48 1 
    18   26   23 1 
    19   26   27 1 
    20   23   13 1 
    21   23   25 1 
    22   16   15 1 
    23   19   14 1 
    24   19   22 1 
    25   19   20 1 
    26   13   14 ar
    27   13    8 ar
    28   14   10 ar
    29   10    9 ar
    30    8    9 ar
    31    8    6 ar
    32    9   11 ar
    33    6    7 2 
    34    6    5 ar
    35   43   41 1 
    36   43   44 1 
    37   50   48 1 
    38    4    5 ar
    39    4    2 ar
    40    5   12 ar
    41    3    2 1 
    42    2    1 ar
    43    1   12 ar
    44    1   48 1 
    45   12   11 ar
    46   48   49 1 
    47   11   15 1 
    48   41   42 2 
    49   15   17 1 
    50   15   18 1 
    51   47   44 1 
    52   44   46 1 
    53   44   45 1 
