@<TRIPOS>MOLECULE
C:\Users\Praveer\PycharmProjects\pdb_to_mol2_converter\data\pdb\biau.pdb
   34    34     0     0     0
SMALL
GASTEIGER

@<TRIPOS>ATOM
      1 N1          1.3420    0.0830   -0.0770 N.ar      1 BIA1        0.0000
      2 C2          2.0510    1.3010   -0.0400 C.ar      1 BIA1        0.0000
      3 O2          3.2780    1.3620   -0.0430 O.2       1 BIA1        0.0000
      4 N3          1.2950    2.4400   -0.0050 N.ar      1 BIA1        0.0000
      5 H3          1.8040    3.3060    0.0220 H         1 BIA1        0.0000
      6 C4         -0.0770    2.4940   -0.0120 C.ar      1 BIA1        0.0000
      7 O4         -0.6300    3.5920   -0.0570 O.2       1 BIA1        0.0000
      8 C5         -0.7770    1.2290   -0.0270 C.ar      1 BIA1        0.0000
      9 C6         -0.0230    0.0770   -0.0470 C.ar      1 BIA1        0.0000
     10 H6         -0.4880   -0.9120   -0.0460 H         1 BIA1        0.0000
     11 C7         -2.2510    1.2740    0.0010 C.3       1 BIA1        0.0000
     12 H71        -2.5990    1.8310    0.8910 H         1 BIA1        0.0000
     13 H72        -2.6920    0.2640   -0.0510 H         1 BIA1        0.0000
     14 N8         -2.7460    2.0290   -1.2020 N.4       1 BIA1        0.0000
     15 H82        -2.2500    2.9190   -1.2110 H         1 BIA1        0.0000
     16 H81        -3.7130    2.2770   -1.0590 H         1 BIA1        0.0000
     17 C9         -2.6010    1.4350   -2.5910 C.3       1 BIA1        0.0000
     18 H91        -3.3340    1.9750   -3.2170 H         1 BIA1        0.0000
     19 H92        -2.9140    0.3800   -2.5030 H         1 BIA1        0.0000
     20 C10        -1.1990    1.5480   -3.1100 C.2       1 BIA1        0.0000
     21 H10        -0.5350    0.6980   -2.8970 H         1 BIA1        0.0000
     22 C11        -0.6880    2.5410   -3.8650 C.2       1 BIA1        0.0000
     23 C12         0.7520    2.4790   -4.2920 C.3       1 BIA1        0.0000
     24 H121        1.3020    1.5930   -3.9010 H         1 BIA1        0.0000
     25 H122        1.3020    3.3830   -3.9500 H         1 BIA1        0.0000
     26 H123        0.8300    2.4500   -5.4010 H         1 BIA1        0.0000
     27 C13        -1.4630    3.7530   -4.3110 C.3       1 BIA1        0.0000
     28 H131       -2.5130    3.8090   -3.9570 H         1 BIA1        0.0000
     29 H132       -1.4920    3.7970   -5.4220 H         1 BIA1        0.0000
     30 H133       -0.9550    4.6800   -3.9670 H         1 BIA1        0.0000
     31 CM          2.1080   -1.1730   -0.1150 C.3       1 BIA1        0.0000
     32 HM1         2.7500   -1.2760    0.7920 H         1 BIA1        0.0000
     33 HM2         2.7880   -1.2030   -0.9990 H         1 BIA1        0.0000
     34 HM3         1.4630   -2.0800   -0.1660 H         1 BIA1        0.0000
@<TRIPOS>BOND
     1   29   27 1 
     2   26   23 1 
     3   27   30 1 
     4   27   28 1 
     5   27   22 1 
     6   23   25 1 
     7   23   24 1 
     8   23   22 1 
     9   22   20 2 
    10   18   17 1 
    11   20   21 1 
    12   20   17 1 
    13   17   19 1 
    14   17   14 1 
    15   15   14 1 
    16   14   16 1 
    17   14   11 1 
    18   33   31 1 
    19   34   31 1 
    20   31    1 1 
    21   31   32 1 
    22    1    9 ar
    23    1    2 ar
    24    7    6 2 
    25   13   11 1 
    26    9   10 1 
    27    9    8 ar
    28    3    2 2 
    29    2    4 ar
    30    8    6 ar
    31    8   11 1 
    32    6    4 ar
    33    4    5 1 
    34   11   12 1 
