@<TRIPOS>MOLECULE
C:\Users\Praveer\PycharmProjects\pdb_to_mol2_converter\data\pdb\bido.pdb
   24    24     0     0     0
SMALL
GASTEIGER

@<TRIPOS>ATOM
      1 C1          1.4190   -0.0200    0.0220 C.3       1 BID1        0.0000
      2 H1          1.7120   -0.5820    0.9390 H         1 BID1        0.0000
      3 O1          1.8460   -0.7370   -1.1050 O.3       1 BID1        0.0000
      4 HO1         1.4020   -1.5880   -1.0730 H         1 BID1        0.0000
      5 C5         -0.5070    0.7860    1.1320 C.3       1 BID1        0.0000
      6 H5         -0.2050    0.2000    2.0340 H         1 BID1        0.0000
      7 O5          0.0010    0.1260   -0.0450 O.3       1 BID1        0.0000
      8 C2          2.0660    1.3630    0.0150 C.3       1 BID1        0.0000
      9 H2          3.1710    1.2240    0.0920 H         1 BID1        0.0000
     10 O2          1.8210    2.1000   -1.1900 O.3       1 BID1        0.0000
     11 HO2         1.9200    1.4700   -1.9190 H         1 BID1        0.0000
     12 C3          1.5900    2.1420    1.2230 C.3       1 BID1        0.0000
     13 H3          1.9890    3.1840    1.1600 H         1 BID1        0.0000
     14 O3          2.1050    1.5610    2.4180 O.3       1 BID1        0.0000
     15 HO3         2.5560    2.2290    2.9460 H         1 BID1        0.0000
     16 C4          0.0790    2.1920    1.2670 C.3       1 BID1        0.0000
     17 H4         -0.2520    2.6190    2.2430 H         1 BID1        0.0000
     18 O4         -0.4100    3.0550    0.2510 O.3       1 BID1        0.0000
     19 HO4         0.0900    2.8460   -0.5560 H         1 BID1        0.0000
     20 C6         -2.0180    0.7820    1.0650 C.3       1 BID1        0.0000
     21 H61        -2.3640    1.2740    0.1270 H         1 BID1        0.0000
     22 H62        -2.4330    1.3580    1.9230 H         1 BID1        0.0000
     23 O6         -2.5370   -0.5470    1.1210 O.3       1 BID1        0.0000
     24 HO6        -2.2620   -1.0140    0.3250 H         1 BID1        0.0000
@<TRIPOS>BOND
     1   11   10 1 
     2   10    8 1 
     3    3    4 1 
     4    3    1 1 
     5   19   18 1 
     6    7    1 1 
     7    7    5 1 
     8    8    1 1 
     9    8    9 1 
    10    8   12 1 
    11    1    2 1 
    12   21   20 1 
    13   18   16 1 
    14   24   23 1 
    15   20   23 1 
    16   20    5 1 
    17   20   22 1 
    18    5   16 1 
    19    5    6 1 
    20   13   12 1 
    21   12   16 1 
    22   12   14 1 
    23   16   17 1 
    24   14   15 1 
