@<TRIPOS>MOLECULE
C:\Users\Praveer\PycharmProjects\pdb_to_mol2_converter\data\pdb\bidona.pdb
   30    30     0     0     0
SMALL
GASTEIGER

@<TRIPOS>ATOM
      1 C1          1.4210   -0.0390   -0.0350 C.3       1 BID1        0.0000
      2 H1          1.6910   -0.5400   -0.9950 H         1 BID1        0.0000
      3 O1          1.9460   -0.7780    1.0290 O.3       1 BID1        0.0000
      4 HO1         1.5940   -1.6680    0.9510 H         1 BID1        0.0000
      5 C5         -0.5950    0.6800   -1.0260 C.3       1 BID1        0.0000
      6 H5         -0.2520    0.1730   -1.9610 H         1 BID1        0.0000
      7 O5          0.0040    0.0370    0.1140 O.3       1 BID1        0.0000
      8 C2          1.9960    1.3650    0.0170 C.3       1 BID1        0.0000
      9 H2          3.0920    1.2670   -0.1980 H         1 BID1        0.0000
     10 N           1.9160    1.9630    1.3430 N.am      1 BID1        0.0000
     11 HN          1.4640    1.4010    2.0280 H         1 BID1        0.0000
     12 C           2.5490    3.0910    1.6890 C.2       1 BID1        0.0000
     13 O           3.2060    3.7470    0.8930 O.2       1 BID1        0.0000
     14 CT          2.4210    3.5170    3.1280 C.3       1 BID1        0.0000
     15 HT1         2.5760    2.6470    3.7990 H         1 BID1        0.0000
     16 HT2         1.4170    3.9530    3.3030 H         1 BID1        0.0000
     17 HT3         3.1930    4.2850    3.3470 H         1 BID1        0.0000
     18 C3          1.3770    2.1920   -1.0990 C.3       1 BID1        0.0000
     19 H3          1.6910    3.2570   -1.0030 H         1 BID1        0.0000
     20 O3          1.8530    1.7230   -2.3570 O.3       1 BID1        0.0000
     21 HO3         2.5110    2.3360   -2.7030 H         1 BID1        0.0000
     22 C4         -0.1370    2.1310   -1.0760 C.3       1 BID1        0.0000
     23 H4         -0.5340    2.5990   -2.0090 H         1 BID1        0.0000
     24 O4         -0.6690    2.8740    0.0130 O.3       1 BID1        0.0000
     25 HO4        -0.3520    2.4730    0.8290 H         1 BID1        0.0000
     26 C6         -2.0980    0.5220   -0.9520 C.3       1 BID1        0.0000
     27 H61        -2.5710    1.0960   -1.7830 H         1 BID1        0.0000
     28 H62        -2.4900    0.9280    0.0070 H         1 BID1        0.0000
     29 O6         -2.4790   -0.8470   -1.0800 O.3       1 BID1        0.0000
     30 HO6        -2.1530   -1.3360   -0.3170 H         1 BID1        0.0000
@<TRIPOS>BOND
     1   21   20 1 
     2   20   18 1 
     3   23   22 1 
     4    6    5 1 
     5   27   26 1 
     6   18   22 1 
     7   18   19 1 
     8   18    8 1 
     9   29   26 1 
    10   29   30 1 
    11   22    5 1 
    12   22   24 1 
    13    5   26 1 
    14    5    7 1 
    15    2    1 1 
    16   26   28 1 
    17    9    8 1 
    18    1    8 1 
    19    1    7 1 
    20    1    3 1 
    21   24   25 1 
    22    8   10 1 
    23   13   12 2 
    24    4    3 1 
    25   10   12 am
    26   10   11 1 
    27   12   14 1 
    28   14   16 1 
    29   14   17 1 
    30   14   15 1 
