@<TRIPOS>MOLECULE
C:\Users\Praveer\PycharmProjects\pdb_to_mol2_converter\data\pdb\bidoa.pdb
   22    22     0     0     0
SMALL
GASTEIGER

@<TRIPOS>ATOM
      1 C1          1.5120   -0.0810   -0.0540 C.3       1 BID1        0.0000
      2 H1          1.7580   -0.5480   -1.0390 H         1 BID1        0.0000
      3 O1          2.0810   -0.8680    0.9550 O.3       1 BID1        0.0000
      4 HO1         1.4490   -1.5830    1.0780 H         1 BID1        0.0000
      5 C5         -0.5490    0.6040   -0.9630 C.3       1 BID1        0.0000
      6 H5         -0.2460    0.1100   -1.9110 H         1 BID1        0.0000
      7 O5          0.1070   -0.0640    0.1460 O.3       1 BID1        0.0000
      8 C2          2.0350    1.3550   -0.0070 C.3       1 BID1        0.0000
      9 H2          3.1340    1.3200   -0.1940 H         1 BID1        0.0000
     10 O2          1.8620    2.0180    1.2570 O.3       1 BID1        0.0000
     11 HO2         0.9060    2.1350    1.3630 H         1 BID1        0.0000
     12 C3          1.3740    2.1840   -1.0890 C.3       1 BID1        0.0000
     13 H3          1.6690    3.2540   -0.9470 H         1 BID1        0.0000
     14 O3          1.8440    1.7950   -2.3820 O.3       1 BID1        0.0000
     15 HO3         1.7640    2.5390   -2.9880 H         1 BID1        0.0000
     16 C4         -0.1360    2.0790   -1.0140 C.3       1 BID1        0.0000
     17 H4         -0.5930    2.5470   -1.9160 H         1 BID1        0.0000
     18 O4         -0.6250    2.7920    0.1220 O.3       1 BID1        0.0000
     19 HO4        -1.4700    2.3270    0.3350 H         1 BID1        0.0000
     20 C6         -2.0740    0.4960   -0.8600 C.2       1 BID1        0.0000
     21 O61        -2.6260   -0.1030   -1.8210 O.co2     1 BID1        0.0000
     22 O62        -2.5990    1.0820    0.1230 O.co2     1 BID1        0.0000
@<TRIPOS>BOND
     1   15   14 1 
     2   14   12 1 
     3   17   16 1 
     4    6    5 1 
     5   21   20 ar
     6   12   16 1 
     7   12   13 1 
     8   12    8 1 
     9    2    1 1 
    10   16    5 1 
    11   16   18 1 
    12    5   20 1 
    13    5    7 1 
    14   20   22 ar
    15    9    8 1 
    16    1    8 1 
    17    1    7 1 
    18    1    3 1 
    19    8   10 1 
    20   18   19 1 
    21    3    4 1 
    22   10   11 1 
