@<TRIPOS>MOLECULE
C:\Users\Praveer\PycharmProjects\pdb_to_mol2_converter\data\pdb\bidon.pdb
   25    25     0     0     0
SMALL
GASTEIGER

@<TRIPOS>ATOM
      1 C1          1.4470    0.0210   -0.0250 C.3       1 BID1        0.0000
      2 H1          1.7700   -0.4550   -0.9790 H         1 BID1        0.0000
      3 O1          2.0050   -0.6900    1.0440 O.3       1 BID1        0.0000
      4 HO1         1.6610   -1.5840    0.9900 H         1 BID1        0.0000
      5 C5         -0.5980    0.6480   -1.0400 C.3       1 BID1        0.0000
      6 H5         -0.2620    0.1450   -1.9790 H         1 BID1        0.0000
      7 O5          0.0230   -0.0020    0.0860 O.3       1 BID1        0.0000
      8 C2          1.9290    1.4710    0.0320 C.3       1 BID1        0.0000
      9 H2          3.0380    1.4470   -0.1110 H         1 BID1        0.0000
     10 N2          1.7230    2.1470    1.3130 N.3       1 BID1        0.0000
     11 HN21        1.5130    1.4870    2.0410 H         1 BID1        0.0000
     12 HN22        2.3950    2.8440    1.5580 H         1 BID1        0.0000
     13 C3          1.3280    2.2290   -1.1340 C.3       1 BID1        0.0000
     14 H3          1.6130    3.3050   -1.0350 H         1 BID1        0.0000
     15 O3          1.8510    1.7520   -2.3720 O.3       1 BID1        0.0000
     16 HO3         2.2190    2.4820   -2.8820 H         1 BID1        0.0000
     17 C4         -0.1790    2.1150   -1.1160 C.3       1 BID1        0.0000
     18 H4         -0.6000    2.5550   -2.0500 H         1 BID1        0.0000
     19 O4         -0.7080    2.8590   -0.0280 O.3       1 BID1        0.0000
     20 HO4        -0.1430    2.6480    0.7370 H         1 BID1        0.0000
     21 C6         -2.0970    0.4700   -0.9340 C.3       1 BID1        0.0000
     22 H61        -2.5970    1.0400   -1.7500 H         1 BID1        0.0000
     23 H62        -2.4660    0.8700    0.0370 H         1 BID1        0.0000
     24 O6         -2.4680   -0.9040   -1.0530 O.3       1 BID1        0.0000
     25 HO6        -2.1260   -1.3800   -0.2890 H         1 BID1        0.0000
@<TRIPOS>BOND
     1   16   15 1 
     2   15   13 1 
     3   18   17 1 
     4    6    5 1 
     5   22   21 1 
     6   13   17 1 
     7   13   14 1 
     8   13    8 1 
     9   17    5 1 
    10   17   19 1 
    11   24   21 1 
    12   24   25 1 
    13    5   21 1 
    14    5    7 1 
    15    2    1 1 
    16   21   23 1 
    17    9    8 1 
    18   19   20 1 
    19    1    8 1 
    20    1    7 1 
    21    1    3 1 
    22    8   10 1 
    23    4    3 1 
    24   10   12 1 
    25   10   11 1 
