@<TRIPOS>MOLECULE
C:\Users\Praveer\PycharmProjects\pdb_to_mol2_converter\data\pdb\bimg.pdb
   27    29     0     0     0
SMALL
GASTEIGER

@<TRIPOS>ATOM
      1 N9          1.3770    0.0010   -0.0120 N.ar      1 BIM1        0.0000
      2 C8          1.7600    1.3230    0.0230 C.ar      1 BIM1        0.0000
      3 H8          2.8090    1.6230    0.0230 H         1 BIM1        0.0000
      4 N7          0.7410    2.1630    0.0610 N.ar      1 BIM1        0.0000
      5 C5         -0.3950    1.3600    0.0570 C.ar      1 BIM1        0.0000
      6 C6         -1.7670    1.7160    0.1460 C.ar      1 BIM1        0.0000
      7 O6         -2.2100    2.8730    0.1470 O.2       1 BIM1        0.0000
      8 N1         -2.6210    0.5890    0.3380 N.ar      1 BIM1        0.0000
      9 C2         -2.2170   -0.7570    0.3210 C.ar      1 BIM1        0.0000
     10 N2         -3.2510   -1.5740    0.6240 N.ar      1 BIM1        0.0000
     11 N3         -0.9080   -1.0640   -0.0400 N.ar      1 BIM1        0.0000
     12 C4         -0.0140    0.0100   -0.0030 C.ar      1 BIM1        0.0000
     13 C12        -3.9590    0.5740    0.6810 C.ar      1 BIM1        0.0000
     14 H12        -4.5570    1.4710    0.7750 H         1 BIM1        0.0000
     15 C11        -4.3210   -0.7280    0.8460 C.ar      1 BIM1        0.0000
     16 C3         -0.6960   -2.3490   -0.7300 C.3       1 BIM1        0.0000
     17 H31        -1.6360   -2.7350   -1.1910 H         1 BIM1        0.0000
     18 H32        -0.3410   -3.1280   -0.0170 H         1 BIM1        0.0000
     19 H33         0.0500   -2.2660   -1.5520 H         1 BIM1        0.0000
     20 C10        -5.6280   -1.3220    1.2210 C.3       1 BIM1        0.0000
     21 H101       -5.5130   -1.8960    2.1640 H         1 BIM1        0.0000
     22 H102       -5.9650   -2.0080    0.4180 H         1 BIM1        0.0000
     23 H103       -6.3860   -0.5250    1.3670 H         1 BIM1        0.0000
     24 CM          2.2660   -1.1720   -0.0540 C.3       1 BIM1        0.0000
     25 HM1         3.3270   -0.8940    0.1330 H         1 BIM1        0.0000
     26 HM2         2.2180   -1.6690   -1.0470 H         1 BIM1        0.0000
     27 HM3         1.9710   -1.9130    0.7220 H         1 BIM1        0.0000
@<TRIPOS>BOND
     1   19   16 1 
     2   17   16 1 
     3   26   24 1 
     4   16   11 1 
     5   16   18 1 
     6   24    1 1 
     7   24   25 1 
     8   24   27 1 
     9   11   12 ar
    10   11    9 ar
    11    1   12 ar
    12    1    2 ar
    13   12    5 ar
    14    2    3 1 
    15    2    4 ar
    16    5    4 ar
    17    5    6 ar
    18    6    7 2 
    19    6    8 ar
    20    9    8 ar
    21    9   10 ar
    22    8   13 ar
    23   22   20 1 
    24   10   15 ar
    25   13   14 1 
    26   13   15 ar
    27   15   20 1 
    28   20   23 1 
    29   20   21 1 
