@<TRIPOS>MOLECULE
C:\Users\Praveer\PycharmProjects\pdb_to_mol2_converter\data\pdb\bino.pdb
   17    18     0     0     0
SMALL
GASTEIGER

@<TRIPOS>ATOM
      1 N9          1.5310   -0.0110   -0.0050 N.ar      1 BIN1        0.0000
      2 C8          1.8740    1.3240    0.0110 C.ar      1 BIN1        0.0000
      3 H8          2.9140    1.6510    0.0290 H         1 BIN1        0.0000
      4 N7          0.8290    2.1400    0.0040 N.ar      1 BIN1        0.0000
      5 C5         -0.2720    1.2950   -0.0180 C.ar      1 BIN1        0.0000
      6 C6         -1.6600    1.5850   -0.0340 C.ar      1 BIN1        0.0000
      7 O6         -2.2430    2.6710   -0.0330 O.2       1 BIN1        0.0000
      8 N1         -2.4430    0.4400   -0.0540 N.ar      1 BIN1        0.0000
      9 H1         -3.4310    0.6150   -0.0650 H         1 BIN1        0.0000
     10 C2         -1.9870   -0.8770   -0.0580 C.ar      1 BIN1        0.0000
     11 H2         -2.6890   -1.7140   -0.0740 H         1 BIN1        0.0000
     12 N3         -0.6530   -1.1300   -0.0430 N.ar      1 BIN1        0.0000
     13 C4          0.1520   -0.0490   -0.0240 C.ar      1 BIN1        0.0000
     14 CM          2.4320   -1.1710   -0.0020 C.3       1 BIN1        0.0000
     15 HM1         3.5020   -0.8730    0.0040 H         1 BIN1        0.0000
     16 HM2         2.2490   -1.7970   -0.9030 H         1 BIN1        0.0000
     17 HM3         2.2400   -1.8000    0.8950 H         1 BIN1        0.0000
@<TRIPOS>BOND
     1   16   14 1 
     2   11   10 1 
     3    9    8 1 
     4   10    8 ar
     5   10   12 ar
     6    8    6 ar
     7   12   13 ar
     8    6    7 2 
     9    6    5 ar
    10   13    5 ar
    11   13    1 ar
    12    5    4 ar
    13    1   14 1 
    14    1    2 ar
    15   14   15 1 
    16   14   17 1 
    17    4    2 ar
    18    2    3 1 
