@<TRIPOS>MOLECULE
C:\Users\Praveer\PycharmProjects\pdb_to_mol2_converter\data\pdb\bisu.pdb
   34    34     0     0     0
SMALL
GASTEIGER

@<TRIPOS>ATOM
      1 N1          1.3450   -0.0100   -0.0340 N.ar      1 BIS1        0.0000
      2 C2          2.1150    1.1790    0.0180 C.ar      1 BIS1        0.0000
      3 S2          3.7640    1.2860    0.0100 S.2       1 BIS1        0.0000
      4 N3          1.3470    2.3300    0.0820 N.ar      1 BIS1        0.0000
      5 H3          1.8520    3.2000    0.1450 H         1 BIS1        0.0000
      6 C4         -0.0250    2.4280    0.1040 C.ar      1 BIS1        0.0000
      7 O4         -0.5380    3.5450    0.1430 O.2       1 BIS1        0.0000
      8 C5         -0.7560    1.1860    0.0260 C.ar      1 BIS1        0.0000
      9 C6         -0.0240    0.0200   -0.0250 C.ar      1 BIS1        0.0000
     10 H6         -0.5050   -0.9610   -0.0240 H         1 BIS1        0.0000
     11 C7         -2.2320    1.2520    0.1170 C.3       1 BIS1        0.0000
     12 H71        -2.5360    1.6700    1.0950 H         1 BIS1        0.0000
     13 H72        -2.7020    0.2740   -0.0840 H         1 BIS1        0.0000
     14 N8         -2.7230    2.2010   -0.9310 N.4       1 BIS1        0.0000
     15 H82        -2.4630    1.8910   -1.8560 H         1 BIS1        0.0000
     16 H81        -2.2080    3.0710   -0.8020 H         1 BIS1        0.0000
     17 C9         -4.1970    2.5240   -0.9320 C.3       1 BIS1        0.0000
     18 H91        -4.4270    2.8870    0.0860 H         1 BIS1        0.0000
     19 H92        -4.7130    1.5650   -1.1110 H         1 BIS1        0.0000
     20 C10        -4.4870    3.5770   -1.9580 C.2       1 BIS1        0.0000
     21 H10        -4.2030    4.6020   -1.6720 H         1 BIS1        0.0000
     22 C11        -5.1090    3.4310   -3.1460 C.2       1 BIS1        0.0000
     23 C12        -5.3160    4.6380   -4.0210 C.3       1 BIS1        0.0000
     24 H121       -4.9080    5.5810   -3.5940 H         1 BIS1        0.0000
     25 H122       -6.4000    4.8040   -4.2060 H         1 BIS1        0.0000
     26 H123       -4.8350    4.4900   -5.0130 H         1 BIS1        0.0000
     27 C13        -5.6370    2.1280   -3.6880 C.3       1 BIS1        0.0000
     28 H131       -5.4620    1.2380   -3.0490 H         1 BIS1        0.0000
     29 H132       -5.1830    1.9130   -4.6800 H         1 BIS1        0.0000
     30 H133       -6.7350    2.2010   -3.8500 H         1 BIS1        0.0000
     31 CM          2.0580   -1.2970   -0.0920 C.3       1 BIS1        0.0000
     32 HM1         2.7230   -1.4300    0.7950 H         1 BIS1        0.0000
     33 HM2         2.7040   -1.3620   -0.9990 H         1 BIS1        0.0000
     34 HM3         1.3730   -2.1750   -0.1170 H         1 BIS1        0.0000
@<TRIPOS>BOND
     1   26   23 1 
     2   29   27 1 
     3   25   23 1 
     4   23   24 1 
     5   23   22 1 
     6   30   27 1 
     7   27   22 1 
     8   27   28 1 
     9   22   20 2 
    10   20   21 1 
    11   20   17 1 
    12   15   14 1 
    13   19   17 1 
    14   33   31 1 
    15   17   14 1 
    16   17   18 1 
    17   14   16 1 
    18   14   11 1 
    19   34   31 1 
    20   31    1 1 
    21   31   32 1 
    22   13   11 1 
    23    1    9 ar
    24    1    2 ar
    25    9   10 1 
    26    9    8 ar
    27    3    2 2 
    28    2    4 ar
    29    8    6 ar
    30    8   11 1 
    31    4    6 ar
    32    4    5 1 
    33    6    7 2 
    34   11   12 1 
