@<TRIPOS>MOLECULE
C:\Users\Praveer\PycharmProjects\pdb_to_mol2_converter\data\pdb\biwg.pdb
   27    29     0     0     0
SMALL
GASTEIGER

@<TRIPOS>ATOM
      1 N9          1.3850    0.0070    0.0310 N.ar      1 BIW1        0.0000
      2 C8          1.7550    1.3340    0.0390 C.ar      1 BIW1        0.0000
      3 H8          2.8000    1.6450    0.0650 H         1 BIW1        0.0000
      4 N7          0.7220    2.1630    0.0110 N.ar      1 BIW1        0.0000
      5 C5         -0.4020    1.3410   -0.0180 C.ar      1 BIW1        0.0000
      6 C6         -1.7870    1.6690   -0.0810 C.ar      1 BIW1        0.0000
      7 O6         -2.2300    2.8260   -0.0640 O.2       1 BIW1        0.0000
      8 N1         -2.6320    0.5170   -0.2180 N.ar      1 BIW1        0.0000
      9 C2         -2.1820   -0.8130   -0.2070 C.ar      1 BIW1        0.0000
     10 N2         -3.1680   -1.6860   -0.4310 N.ar      1 BIW1        0.0000
     11 N3         -0.8540   -1.0750   -0.0080 N.ar      1 BIW1        0.0000
     12 H3         -0.5670   -2.0250   -0.1670 H         1 BIW1        0.0000
     13 C4          0.0070    0.0050   -0.0030 C.ar      1 BIW1        0.0000
     14 C12        -3.9910    0.4440   -0.4570 C.ar      1 BIW1        0.0000
     15 C11        -4.2940   -0.8930   -0.5790 C.ar      1 BIW1        0.0000
     16 C10        -5.5830   -1.5940   -0.8410 C.3       1 BIW1        0.0000
     17 H101       -5.8020   -2.2880   -0.0040 H         1 BIW1        0.0000
     18 H102       -5.5010   -2.1770   -1.7810 H         1 BIW1        0.0000
     19 H103       -6.4140   -0.8660   -0.9360 H         1 BIW1        0.0000
     20 C13        -4.9230    1.6340   -0.5610 C.3       1 BIW1        0.0000
     21 H131       -4.5980    2.3010   -1.3900 H         1 BIW1        0.0000
     22 H132       -4.9010    2.2170    0.3850 H         1 BIW1        0.0000
     23 H133       -5.9700    1.3160   -0.7550 H         1 BIW1        0.0000
     24 CM          2.2530   -1.1780    0.0570 C.3       1 BIW1        0.0000
     25 HM1         3.3310   -0.8990    0.0730 H         1 BIW1        0.0000
     26 HM2         2.0800   -1.8100   -0.8410 H         1 BIW1        0.0000
     27 HM3         2.0490   -1.7930    0.9610 H         1 BIW1        0.0000
@<TRIPOS>BOND
     1   18   16 1 
     2   21   20 1 
     3   19   16 1 
     4   16   15 1 
     5   16   17 1 
     6   26   24 1 
     7   23   20 1 
     8   15   14 ar
     9   15   10 ar
    10   20   14 1 
    11   20   22 1 
    12   14    8 ar
    13   10    9 ar
    14    8    9 ar
    15    8    6 ar
    16    9   11 ar
    17   12   11 1 
    18    6    7 2 
    19    6    5 ar
    20    5   13 ar
    21    5    4 ar
    22   11   13 ar
    23   13    1 ar
    24    4    2 ar
    25    1    2 ar
    26    1   24 1 
    27    2    3 1 
    28   24   25 1 
    29   24   27 1 
