@<TRIPOS>MOLECULE
C:\Users\Praveer\PycharmProjects\pdb_to_mol2_converter\data\pdb\bk2c.pdb
   38    38     0     0     0
SMALL
GASTEIGER

@<TRIPOS>ATOM
      1 N1          1.4190   -0.0010   -0.0370 N.pl3     1 BK21        0.0000
      2 C2          2.1220    1.1900   -0.0070 C.3       1 BK21        0.0000
      3 N2          3.4640    1.2210    0.0190 N.3       1 BK21        0.0000
      4 H2          3.8850    0.3190    0.0180 H         1 BK21        0.0000
      5 N3          1.4010    2.3520    0.0020 N.pl3     1 BK21        0.0000
      6 H3          1.8380    3.2380    0.0070 H         1 BK21        0.0000
      7 C4          0.0030    2.4430   -0.0100 C.2       1 BK21        0.0000
      8 N4         -0.5070    3.6330    0.0050 N.2       1 BK21        0.0000
      9 H4         -1.5040    3.5940   -0.0050 H         1 BK21        0.0000
     10 C5         -0.6870    1.1900   -0.0370 C.2       1 BK21        0.0000
     11 H5         -1.7640    1.2000   -0.0450 H         1 BK21        0.0000
     12 C6          0.0160   -0.0060   -0.0520 C.2       1 BK21        0.0000
     13 H6         -0.4600   -0.9800   -0.0680 H         1 BK21        0.0000
     14 C7          4.2430    2.4170    0.3560 C.3       1 BK21        0.0000
     15 H71         3.8900    3.3080   -0.1940 H         1 BK21        0.0000
     16 H72         5.2950    2.2690    0.0510 H         1 BK21        0.0000
     17 C8          4.1810    2.6520    1.8760 C.3       1 BK21        0.0000
     18 H81         4.6090    1.7780    2.4150 H         1 BK21        0.0000
     19 H82         3.1240    2.7670    2.2050 H         1 BK21        0.0000
     20 C9          4.9470    3.9240    2.2970 C.3       1 BK21        0.0000
     21 H91         4.5420    4.7990    1.7380 H         1 BK21        0.0000
     22 H92         6.0210    3.8090    2.0350 H         1 BK21        0.0000
     23 C10         4.7890    4.1890    3.8060 C.3       1 BK21        0.0000
     24 H101        5.1740    3.3200    4.3850 H         1 BK21        0.0000
     25 H102        3.6950    4.2510    4.0200 H         1 BK21        0.0000
     26 C12         5.4500    5.4940    4.3360 C.3       1 BK21        0.0000
     27 H12         5.0600    6.3650    3.7660 H         1 BK21        0.0000
     28 N14         6.9350    5.4310    4.1630 N.4       1 BK21        0.0000
     29 H141        7.2210    5.3740    3.1720 H         1 BK21        0.0000
     30 H142        7.2640    4.6100    4.7120 H         1 BK21        0.0000
     31 H143        7.3200    6.2790    4.6310 H         1 BK21        0.0000
     32 C13         5.0570    5.7150    5.8110 C.2       1 BK21        0.0000
     33 O30         5.9960    5.7760    6.6480 O.co2     1 BK21        0.0000
     34 O31         3.8240    5.8170    6.0210 O.co2     1 BK21        0.0000
     35 CM          2.1290   -1.3020   -0.0240 C.3       1 BK21        0.0000
     36 HM1         2.7510   -1.4220    0.8920 H         1 BK21        0.0000
     37 HM2         2.7820   -1.4210   -0.9190 H         1 BK21        0.0000
     38 HM3         1.4220   -2.1650   -0.0370 H         1 BK21        0.0000
@<TRIPOS>BOND
     1   37   35 1 
     2   15   14 1 
     3   13   12 1 
     4   12    1 1 
     5   12   10 2 
     6   11   10 1 
     7    1   35 1 
     8    1    2 1 
     9   10    7 1 
    10   38   35 1 
    11   35   36 1 
    12    7    5 1 
    13    7    8 2 
    14    2    5 1 
    15    2    3 1 
    16    9    8 1 
    17    5    6 1 
    18    4    3 1 
    19    3   14 1 
    20   16   14 1 
    21   14   17 1 
    22   21   20 1 
    23   17   19 1 
    24   17   20 1 
    25   17   18 1 
    26   22   20 1 
    27   20   23 1 
    28   29   28 1 
    29   27   26 1 
    30   23   25 1 
    31   23   26 1 
    32   23   24 1 
    33   28   26 1 
    34   28   31 1 
    35   28   30 1 
    36   26   32 1 
    37   32   34 ar
    38   32   33 ar
