@<TRIPOS>MOLECULE
C:\Users\Praveer\PycharmProjects\pdb_to_mol2_converter\data\pdb\bkdn.pdb
   33    33     0     0     0
SMALL
GASTEIGER

@<TRIPOS>ATOM
      1 C1          2.0770    1.4470   -0.0600 C.2       1 BKD1        0.0000
      2 O11         1.6190    2.2500    0.7920 O.co2     1 BKD1        0.0000
      3 O12         2.9320    1.6730   -0.9730 O.co2     1 BKD1        0.0000
      4 C2          1.5050   -0.0130   -0.0120 C.3       1 BKD1        0.0000
      5 O2          2.0580   -0.7950   -1.0380 O.3       1 BKD1        0.0000
      6 HO2         2.6750   -0.1410   -1.4060 H         1 BKD1        0.0000
      7 C6          1.5030   -1.9050    1.5030 C.3       1 BKD1        0.0000
      8 H6          1.9580   -2.5780    0.7400 H         1 BKD1        0.0000
      9 O6          1.9430   -0.5500    1.2430 O.3       1 BKD1        0.0000
     10 C3         -0.0130   -0.0230   -0.0550 C.3       1 BKD1        0.0000
     11 H31        -0.3470    0.4030   -1.0290 H         1 BKD1        0.0000
     12 H32        -0.3920    0.6480    0.7530 H         1 BKD1        0.0000
     13 C4         -0.5630   -1.3930    0.1350 C.3       1 BKD1        0.0000
     14 H4         -0.2350   -2.0280   -0.7250 H         1 BKD1        0.0000
     15 O4         -1.9840   -1.3070    0.0970 O.3       1 BKD1        0.0000
     16 HO4        -2.2940   -1.7980   -0.6770 H         1 BKD1        0.0000
     17 C5         -0.0260   -2.0410    1.4040 C.3       1 BKD1        0.0000
     18 H5         -0.4700   -1.5020    2.2730 H         1 BKD1        0.0000
     19 O5         -0.4170   -3.4130    1.4720 O.3       1 BKD1        0.0000
     20 HO5        -0.3310   -3.6920    2.3990 H         1 BKD1        0.0000
     21 C7          2.1350   -2.2230    2.8660 C.3       1 BKD1        0.0000
     22 H7          1.6990   -1.5190    3.6170 H         1 BKD1        0.0000
     23 O7          3.5370   -1.9270    2.8010 O.3       1 BKD1        0.0000
     24 HO7         3.5530   -1.1360    2.2350 H         1 BKD1        0.0000
     25 C8          1.9680   -3.6560    3.3720 C.3       1 BKD1        0.0000
     26 H8          2.0500   -4.3560    2.5080 H         1 BKD1        0.0000
     27 O8          0.6700   -3.8140    3.9590 O.3       1 BKD1        0.0000
     28 HO8         0.8480   -4.4930    4.6270 H         1 BKD1        0.0000
     29 C9          3.0140   -4.0610    4.4070 C.3       1 BKD1        0.0000
     30 H91         3.0110   -3.3350    5.2530 H         1 BKD1        0.0000
     31 H92         4.0260   -4.0490    3.9450 H         1 BKD1        0.0000
     32 O9          2.7640   -5.3870    4.9040 O.3       1 BKD1        0.0000
     33 HO9         3.5870   -5.7190    5.2840 H         1 BKD1        0.0000
@<TRIPOS>BOND
     1    6    5 1 
     2    5    4 1 
     3   11   10 1 
     4    3    1 ar
     5   14   13 1 
     6   16   15 1 
     7    1    4 1 
     8    1    2 ar
     9   10    4 1 
    10   10   13 1 
    11   10   12 1 
    12    4    9 1 
    13   15   13 1 
    14   13   17 1 
    15    8    7 1 
    16    9    7 1 
    17   17   19 1 
    18   17    7 1 
    19   17   18 1 
    20   19   20 1 
    21    7   21 1 
    22   24   23 1 
    23   26   25 1 
    24   23   21 1 
    25   21   25 1 
    26   21   22 1 
    27   25   27 1 
    28   25   29 1 
    29   31   29 1 
    30   27   28 1 
    31   29   32 1 
    32   29   30 1 
    33   32   33 1 
