@<TRIPOS>MOLECULE
C:\Users\Praveer\PycharmProjects\pdb_to_mol2_converter\data\pdb\bko.pdb
   30    30     0     0     0
SMALL
GASTEIGER

@<TRIPOS>ATOM
      1 C1          2.2330    1.4170    0.2160 C.2       1 BKO1        0.0000
      2 O11         3.2080    1.5680   -0.5830 O.co2     1 BKO1        0.0000
      3 O12         1.6770    2.2860    0.9290 O.co2     1 BKO1        0.0000
      4 C2          1.4730    0.0480    0.1070 C.3       1 BKO1        0.0000
      5 O2          1.9480   -0.6610   -1.0210 O.3       1 BKO1        0.0000
      6 HO2         2.7020   -0.0920   -1.2540 H         1 BKO1        0.0000
      7 C6          1.4980   -0.4710    2.4600 C.3       1 BKO1        0.0000
      8 H6          1.8110    0.5720    2.7010 H         1 BKO1        0.0000
      9 O6          1.9800   -0.8130    1.1460 O.3       1 BKO1        0.0000
     10 C3         -0.0660    0.2020    0.1280 C.3       1 BKO1        0.0000
     11 H3         -0.3150    1.1010   -0.4830 H         1 BKO1        0.0000
     12 O3         -0.7280   -0.9030   -0.5090 O.3       1 BKO1        0.0000
     13 HO3        -0.0020   -1.5250   -0.6790 H         1 BKO1        0.0000
     14 C4         -0.6240    0.4250    1.5340 C.3       1 BKO1        0.0000
     15 H4         -0.3620    1.4540    1.8670 H         1 BKO1        0.0000
     16 O4         -2.0520    0.3430    1.5310 O.3       1 BKO1        0.0000
     17 HO4        -2.2380   -0.2210    0.7670 H         1 BKO1        0.0000
     18 C5         -0.0220   -0.5460    2.5350 C.3       1 BKO1        0.0000
     19 H5         -0.3330   -0.2190    3.5560 H         1 BKO1        0.0000
     20 O5         -0.4930   -1.8820    2.3590 O.3       1 BKO1        0.0000
     21 HO5        -1.4530   -1.8330    2.3030 H         1 BKO1        0.0000
     22 C7          2.1830   -1.3810    3.4620 C.3       1 BKO1        0.0000
     23 H7          1.8370   -2.4300    3.3080 H         1 BKO1        0.0000
     24 O7          1.8800   -0.9770    4.8020 O.3       1 BKO1        0.0000
     25 HO7         2.6960   -1.2030    5.2690 H         1 BKO1        0.0000
     26 C8          3.6890   -1.3240    3.2890 C.3       1 BKO1        0.0000
     27 H81         4.0440   -0.2810    3.4580 H         1 BKO1        0.0000
     28 H82         3.9700   -1.6120    2.2500 H         1 BKO1        0.0000
     29 O8          4.3440   -2.2050    4.2190 O.3       1 BKO1        0.0000
     30 HO8         4.4890   -3.0370    3.7560 H         1 BKO1        0.0000
@<TRIPOS>BOND
     1    6    5 1 
     2    5    4 1 
     3   13   12 1 
     4    2    1 ar
     5   12   10 1 
     6   11   10 1 
     7    4   10 1 
     8    4    1 1 
     9    4    9 1 
    10   10   14 1 
    11    1    3 ar
    12   17   16 1 
    13    9    7 1 
    14   16   14 1 
    15   14   15 1 
    16   14   18 1 
    17   28   26 1 
    18   21   20 1 
    19   20   18 1 
    20    7   18 1 
    21    7    8 1 
    22    7   22 1 
    23   18   19 1 
    24   26   27 1 
    25   26   22 1 
    26   26   29 1 
    27   23   22 1 
    28   22   24 1 
    29   30   29 1 
    30   24   25 1 
