@<TRIPOS>MOLECULE
C:\Users\Praveer\PycharmProjects\pdb_to_mol2_converter\data\pdb\bl6alt.pdb
   23    23     0     0     0
SMALL
GASTEIGER

@<TRIPOS>ATOM
      1 C1          1.3020   -0.0580    0.0490 C.3       1 BL61        0.0000
      2 H1          1.7510   -0.6200   -0.8020 H         1 BL61        0.0000
      3 O1          1.7180   -0.6740    1.2350 O.3       1 BL61        0.0000
      4 HO1         1.4400   -0.0970    1.9510 H         1 BL61        0.0000
      5 C5         -0.5550    0.4090   -1.3300 C.3       1 BL61        0.0000
      6 H5         -0.0900   -0.2230   -2.1230 H         1 BL61        0.0000
      7 O5         -0.1250   -0.0550   -0.0440 O.3       1 BL61        0.0000
      8 C2          1.7420    1.3980    0.0400 C.3       1 BL61        0.0000
      9 H2          2.8530    1.4360    0.1440 H         1 BL61        0.0000
     10 O2          1.1840    2.1570    1.1220 O.3       1 BL61        0.0000
     11 HO2         0.2600    1.9040    1.2330 H         1 BL61        0.0000
     12 C3          1.3650    2.0190   -1.2840 C.3       1 BL61        0.0000
     13 H3          1.6120    3.1080   -1.2600 H         1 BL61        0.0000
     14 O3          2.1290    1.4380   -2.3350 O.3       1 BL61        0.0000
     15 HO3         1.7230    1.7250   -3.1650 H         1 BL61        0.0000
     16 C4         -0.1270    1.8620   -1.5350 C.3       1 BL61        0.0000
     17 H4         -0.6670    2.4860   -0.7830 H         1 BL61        0.0000
     18 O4         -0.4970    2.3230   -2.8340 O.3       1 BL61        0.0000
     19 HO4        -1.3960    2.6680   -2.8210 H         1 BL61        0.0000
     20 C6         -2.0790    0.2020   -1.3840 C.3       1 BL61        0.0000
     21 H61        -2.3190   -0.8680   -1.2050 H         1 BL61        0.0000
     22 H62        -2.4800    0.4890   -2.3780 H         1 BL61        0.0000
     23 H63        -2.5810    0.8070   -0.6010 H         1 BL61        0.0000
@<TRIPOS>BOND
     1   15   14 1 
     2   18   19 1 
     3   18   16 1 
     4   22   20 1 
     5   14   12 1 
     6    6    5 1 
     7   16    5 1 
     8   16   12 1 
     9   16   17 1 
    10   20    5 1 
    11   20   21 1 
    12   20   23 1 
    13    5    7 1 
    14   12   13 1 
    15   12    8 1 
    16    2    1 1 
    17    7    1 1 
    18    8    1 1 
    19    8    9 1 
    20    8   10 1 
    21    1    3 1 
    22   10   11 1 
    23    3    4 1 
