@<TRIPOS>MOLECULE
C:\Users\Praveer\PycharmProjects\pdb_to_mol2_converter\data\pdb\bl6tal.pdb
   23    23     0     0     0
SMALL
GASTEIGER

@<TRIPOS>ATOM
      1 C1          1.3010   -0.0810    0.0530 C.3       1 BL61        0.0000
      2 H1          1.7490   -0.6570   -0.7890 H         1 BL61        0.0000
      3 O1          1.7060   -0.6850    1.2450 O.3       1 BL61        0.0000
      4 HO1         1.3860   -0.0920    1.9340 H         1 BL61        0.0000
      5 C5         -0.5660    0.4410   -1.3050 C.3       1 BL61        0.0000
      6 H5         -0.1000   -0.1480   -2.1300 H         1 BL61        0.0000
      7 O5         -0.1240   -0.0990   -0.0540 O.3       1 BL61        0.0000
      8 C2          1.7870    1.3650    0.0230 C.3       1 BL61        0.0000
      9 H2          2.9030    1.3530    0.0690 H         1 BL61        0.0000
     10 O2          1.3250    2.1420    1.1370 O.3       1 BL61        0.0000
     11 HO2         0.3960    2.3630    0.9470 H         1 BL61        0.0000
     12 C3          1.3680    1.9880   -1.2970 C.3       1 BL61        0.0000
     13 H3          1.8310    1.3910   -2.1190 H         1 BL61        0.0000
     14 O3          1.8540    3.3170   -1.4460 O.3       1 BL61        0.0000
     15 HO3         1.5650    3.8140   -0.6710 H         1 BL61        0.0000
     16 C4         -0.1430    1.9040   -1.4580 C.3       1 BL61        0.0000
     17 H4         -0.4020    2.2460   -2.4880 H         1 BL61        0.0000
     18 O4         -0.8340    2.7470   -0.5300 O.3       1 BL61        0.0000
     19 HO4        -1.6970    2.9840   -0.8850 H         1 BL61        0.0000
     20 C6         -2.0870    0.2180   -1.3860 C.3       1 BL61        0.0000
     21 H61        -2.3120   -0.8680   -1.3190 H         1 BL61        0.0000
     22 H62        -2.4960    0.6080   -2.3410 H         1 BL61        0.0000
     23 H63        -2.5960    0.7240   -0.5380 H         1 BL61        0.0000
@<TRIPOS>BOND
     1   17   16 1 
     2   22   20 1 
     3    6    5 1 
     4   13   12 1 
     5   16    5 1 
     6   16   12 1 
     7   16   18 1 
     8   14   12 1 
     9   14   15 1 
    10   20   21 1 
    11   20    5 1 
    12   20   23 1 
    13    5    7 1 
    14   12    8 1 
    15   19   18 1 
    16    2    1 1 
    17    7    1 1 
    18    8    1 1 
    19    8    9 1 
    20    8   10 1 
    21    1    3 1 
    22   11   10 1 
    23    3    4 1 
