@<TRIPOS>MOLECULE
C:\Users\Praveer\PycharmProjects\pdb_to_mol2_converter\data\pdb\blalta.pdb
   22    22     0     0     0
SMALL
GASTEIGER

@<TRIPOS>ATOM
      1 C1          1.5040    0.0120   -0.0410 C.3       1 BLA1        0.0000
      2 H1          1.7590   -0.4320   -1.0300 H         1 BLA1        0.0000
      3 O1          2.1170   -0.7370    0.9680 O.3       1 BLA1        0.0000
      4 HO1         1.6170   -1.5550    1.0110 H         1 BLA1        0.0000
      5 C5         -0.6070    0.6230   -0.9400 C.3       1 BLA1        0.0000
      6 H5         -0.4390   -0.0090   -1.8390 H         1 BLA1        0.0000
      7 O5          0.0960    0.0080    0.1720 O.3       1 BLA1        0.0000
      8 C2          1.9150    1.4720    0.0510 C.3       1 BLA1        0.0000
      9 H2          3.0280    1.5380    0.0480 H         1 BLA1        0.0000
     10 O2          1.4410    2.1200    1.2380 O.3       1 BLA1        0.0000
     11 HO2         0.6470    1.6310    1.5070 H         1 BLA1        0.0000
     12 C3          1.3810    2.1860   -1.1640 C.3       1 BLA1        0.0000
     13 H3          1.6340    3.2710   -1.0860 H         1 BLA1        0.0000
     14 O3          1.9980    1.6970   -2.3500 O.3       1 BLA1        0.0000
     15 HO3         1.3790    1.9280   -3.0610 H         1 BLA1        0.0000
     16 C4         -0.1350    2.0600   -1.2200 C.3       1 BLA1        0.0000
     17 H4         -0.5440    2.7190   -0.4140 H         1 BLA1        0.0000
     18 O4         -0.6650    2.5190   -2.4610 O.3       1 BLA1        0.0000
     19 HO4        -1.5970    2.1860   -2.4460 H         1 BLA1        0.0000
     20 C6         -2.1290    0.6920   -0.7170 C.2       1 BLA1        0.0000
     21 O61        -2.7500    1.0130   -1.7740 O.co2     1 BLA1        0.0000
     22 O62        -2.5810    0.4850    0.4430 O.co2     1 BLA1        0.0000
@<TRIPOS>BOND
     1   15   14 1 
     2   18   19 1 
     3   18   16 1 
     4   14   12 1 
     5    6    5 1 
     6   21   20 ar
     7   16   12 1 
     8   16    5 1 
     9   16   17 1 
    10   12   13 1 
    11   12    8 1 
    12    2    1 1 
    13    5   20 1 
    14    5    7 1 
    15   20   22 ar
    16    1    8 1 
    17    1    7 1 
    18    1    3 1 
    19    9    8 1 
    20    8   10 1 
    21    3    4 1 
    22   10   11 1 
