@<TRIPOS>MOLECULE
C:\Users\Praveer\PycharmProjects\pdb_to_mol2_converter\data\pdb\blall.pdb
   24    24     0     0     0
SMALL
GASTEIGER

@<TRIPOS>ATOM
      1 C1          1.4290    0.0090   -0.0410 C.3       1 BLA1        0.0000
      2 H1          1.7140   -0.5020   -0.9890 H         1 BLA1        0.0000
      3 O1          1.9680   -0.7150    1.0310 O.3       1 BLA1        0.0000
      4 HO1         2.9170   -0.5590    1.0100 H         1 BLA1        0.0000
      5 C5         -0.5870    0.7190   -1.0790 C.3       1 BLA1        0.0000
      6 H5         -0.2530    0.2050   -2.0130 H         1 BLA1        0.0000
      7 O5          0.0060    0.0840    0.0650 O.3       1 BLA1        0.0000
      8 C2          1.9830    1.4270   -0.0170 C.3       1 BLA1        0.0000
      9 H2          1.6700    1.8890    0.9510 H         1 BLA1        0.0000
     10 O2          3.4140    1.4660   -0.0650 O.3       1 BLA1        0.0000
     11 HO2         3.6620    1.4850   -1.0000 H         1 BLA1        0.0000
     12 C3          1.3870    2.2400   -1.1490 C.3       1 BLA1        0.0000
     13 H3          1.6910    3.3070   -1.0120 H         1 BLA1        0.0000
     14 O3          1.8950    1.8150   -2.4130 O.3       1 BLA1        0.0000
     15 HO3         1.3170    2.1960   -3.0900 H         1 BLA1        0.0000
     16 C4         -0.1290    2.1710   -1.1090 C.3       1 BLA1        0.0000
     17 H4         -0.4730    2.6560   -0.1630 H         1 BLA1        0.0000
     18 O4         -0.7130    2.8680   -2.2090 O.3       1 BLA1        0.0000
     19 HO4        -1.3490    3.5250   -1.9030 H         1 BLA1        0.0000
     20 C6         -2.0870    0.5560   -0.9610 C.3       1 BLA1        0.0000
     21 H61        -2.5950    1.0360   -1.8280 H         1 BLA1        0.0000
     22 H62        -2.4530    1.0440   -0.0300 H         1 BLA1        0.0000
     23 O6         -2.4540   -0.8220   -0.9380 O.3       1 BLA1        0.0000
     24 HO6        -1.9680   -1.2540   -0.2240 H         1 BLA1        0.0000
@<TRIPOS>BOND
     1   15   14 1 
     2   14   12 1 
     3   18   19 1 
     4   18   16 1 
     5    6    5 1 
     6   21   20 1 
     7   12   16 1 
     8   12   13 1 
     9   12    8 1 
    10   16    5 1 
    11   16   17 1 
    12    5   20 1 
    13    5    7 1 
    14   11   10 1 
    15    2    1 1 
    16   20   23 1 
    17   20   22 1 
    18   23   24 1 
    19   10    8 1 
    20    1    8 1 
    21    1    7 1 
    22    1    3 1 
    23    8    9 1 
    24    4    3 1 
