@<TRIPOS>MOLECULE
C:\Users\Praveer\PycharmProjects\pdb_to_mol2_converter\data\pdb\blalt.pdb
   24    24     0     0     0
SMALL
GASTEIGER

@<TRIPOS>ATOM
      1 C1          1.4320    0.0280   -0.0400 C.3       1 BLA1        0.0000
      2 H1          1.7510   -0.4760   -0.9820 H         1 BLA1        0.0000
      3 O1          1.9300   -0.7060    1.0390 O.3       1 BLA1        0.0000
      4 HO1         1.5570   -0.2700    1.8110 H         1 BLA1        0.0000
      5 C5         -0.5860    0.7120   -1.0780 C.3       1 BLA1        0.0000
      6 H5         -0.2610    0.2100   -2.0210 H         1 BLA1        0.0000
      7 O5          0.0070    0.0420    0.0490 O.3       1 BLA1        0.0000
      8 C2          1.9740    1.4550    0.0080 C.3       1 BLA1        0.0000
      9 H2          3.0820    1.4020   -0.1270 H         1 BLA1        0.0000
     10 O2          1.7230    2.1430    1.2430 O.3       1 BLA1        0.0000
     11 HO2         2.5450    2.2410    1.7360 H         1 BLA1        0.0000
     12 C3          1.3920    2.2420   -1.1380 C.3       1 BLA1        0.0000
     13 H3          1.6990    3.3120   -1.0410 H         1 BLA1        0.0000
     14 O3          1.9110    1.7680   -2.3760 O.3       1 BLA1        0.0000
     15 HO3         1.3490    2.1310   -3.0740 H         1 BLA1        0.0000
     16 C4         -0.1240    2.1670   -1.1040 C.3       1 BLA1        0.0000
     17 H4         -0.4750    2.6490   -0.1600 H         1 BLA1        0.0000
     18 O4         -0.7050    2.8630   -2.2070 O.3       1 BLA1        0.0000
     19 HO4        -1.2320    3.6070   -1.8940 H         1 BLA1        0.0000
     20 C6         -2.0870    0.5590   -0.9570 C.3       1 BLA1        0.0000
     21 H61        -2.5950    1.0650   -1.8080 H         1 BLA1        0.0000
     22 H62        -2.4420    1.0280   -0.0110 H         1 BLA1        0.0000
     23 O6         -2.4670   -0.8170   -0.9660 O.3       1 BLA1        0.0000
     24 HO6        -1.9600   -1.2740   -0.2840 H         1 BLA1        0.0000
@<TRIPOS>BOND
     1   15   14 1 
     2   14   12 1 
     3   18   19 1 
     4   18   16 1 
     5    6    5 1 
     6   21   20 1 
     7   12   16 1 
     8   12   13 1 
     9   12    8 1 
    10   16    5 1 
    11   16   17 1 
    12    5   20 1 
    13    5    7 1 
    14    2    1 1 
    15   23   20 1 
    16   23   24 1 
    17   20   22 1 
    18    9    8 1 
    19    1    8 1 
    20    1    7 1 
    21    1    3 1 
    22    8   10 1 
    23    3    4 1 
    24   10   11 1 
