@<TRIPOS>MOLECULE
C:\Users\Praveer\PycharmProjects\pdb_to_mol2_converter\data\pdb\blalna.pdb
   30    30     0     0     0
SMALL
GASTEIGER

@<TRIPOS>ATOM
      1 C1          1.6840    0.1220   -0.1500 C.3       1 BLA1        0.0000
      2 H1          1.9910   -0.3060   -1.1300 H         1 BLA1        0.0000
      3 O1          2.2060   -0.6810    0.8690 O.3       1 BLA1        0.0000
      4 HO1         1.8690   -1.5670    0.7270 H         1 BLA1        0.0000
      5 C5         -0.4170    0.9310   -0.9950 C.3       1 BLA1        0.0000
      6 H5         -1.4830    1.0150   -0.6630 H         1 BLA1        0.0000
      7 O5          0.2620    0.1440    0.0080 O.3       1 BLA1        0.0000
      8 C2          2.2240    1.5280    0.0240 C.3       1 BLA1        0.0000
      9 H2          3.3340    1.4800   -0.1200 H         1 BLA1        0.0000
     10 N           2.0180    2.0410    1.3720 N.am      1 BLA1        0.0000
     11 HN          1.5750    1.3990    1.9890 H         1 BLA1        0.0000
     12 C           2.5130    3.1930    1.8380 C.2       1 BLA1        0.0000
     13 O           3.1070    3.9960    1.1340 O.2       1 BLA1        0.0000
     14 CT          2.3060    3.4600    3.3060 C.3       1 BLA1        0.0000
     15 HT1         3.1200    2.9750    3.8860 H         1 BLA1        0.0000
     16 HT2         1.3240    3.0660    3.6360 H         1 BLA1        0.0000
     17 HT3         2.3420    4.5540    3.4860 H         1 BLA1        0.0000
     18 C3          1.6530    2.3870   -1.0790 C.3       1 BLA1        0.0000
     19 H3          1.9900    3.4410   -0.9450 H         1 BLA1        0.0000
     20 O3          2.1520    1.9600   -2.3410 O.3       1 BLA1        0.0000
     21 HO3         1.7240    2.5030   -3.0150 H         1 BLA1        0.0000
     22 C4          0.1360    2.3600   -1.0240 C.3       1 BLA1        0.0000
     23 H4         -0.1670    2.8400   -0.0610 H         1 BLA1        0.0000
     24 O4         -0.4530    3.1170   -2.0820 O.3       1 BLA1        0.0000
     25 HO4        -0.9630    3.8530   -1.7290 H         1 BLA1        0.0000
     26 C6         -0.4570    0.2030   -2.3300 C.3       1 BLA1        0.0000
     27 H61         0.5610    0.0360   -2.7410 H         1 BLA1        0.0000
     28 H62        -1.0110    0.8160   -3.0770 H         1 BLA1        0.0000
     29 O6         -1.1240   -1.0510   -2.2160 O.3       1 BLA1        0.0000
     30 HO6        -0.7250   -1.5600   -1.4990 H         1 BLA1        0.0000
@<TRIPOS>BOND
     1   28   26 1 
     2   21   20 1 
     3   27   26 1 
     4   20   18 1 
     5   26   29 1 
     6   26    5 1 
     7   29   30 1 
     8   24   25 1 
     9   24   22 1 
    10    2    1 1 
    11   18   22 1 
    12   18   19 1 
    13   18    8 1 
    14   22    5 1 
    15   22   23 1 
    16    5    6 1 
    17    5    7 1 
    18    1    7 1 
    19    1    8 1 
    20    1    3 1 
    21    9    8 1 
    22    8   10 1 
    23    4    3 1 
    24   13   12 2 
    25   10   12 am
    26   10   11 1 
    27   12   14 1 
    28   14   17 1 
    29   14   16 1 
    30   14   15 1 
