@<TRIPOS>MOLECULE
C:\Users\Praveer\PycharmProjects\pdb_to_mol2_converter\data\pdb\blarb.pdb
   20    20     0     0     0
SMALL
GASTEIGER

@<TRIPOS>ATOM
      1 O4          1.3890    0.0140    0.1030 O.3       1 BLA1        0.0000
      2 C1          1.8800    1.3560   -0.0050 C.3       1 BLA1        0.0000
      3 H1          2.6540    1.3390   -0.8020 H         1 BLA1        0.0000
      4 O1          2.4770    1.7850    1.1790 O.3       1 BLA1        0.0000
      5 HO1         1.7690    2.2340    1.6550 H         1 BLA1        0.0000
      6 C4         -0.0420    0.0130    0.0180 C.3       1 BLA1        0.0000
      7 H4         -0.3540   -0.9480   -0.4540 H         1 BLA1        0.0000
      8 C5         -0.6170    0.0630    1.4130 C.3       1 BLA1        0.0000
      9 H51        -0.2910    0.9800    1.9510 H         1 BLA1        0.0000
     10 H52        -0.2410   -0.8140    1.9900 H         1 BLA1        0.0000
     11 O5         -2.0430    0.0150    1.3700 O.3       1 BLA1        0.0000
     12 HO5        -2.4100    0.0250    2.2610 H         1 BLA1        0.0000
     13 C2          0.6770    2.2560   -0.4430 C.3       1 BLA1        0.0000
     14 H2          0.9870    2.9170   -1.2800 H         1 BLA1        0.0000
     15 O2          0.1350    3.0730    0.5860 O.3       1 BLA1        0.0000
     16 HO2        -0.4400    3.7450    0.2030 H         1 BLA1        0.0000
     17 C3         -0.3460    1.2060   -0.8830 C.3       1 BLA1        0.0000
     18 H3         -1.3940    1.5540   -0.7630 H         1 BLA1        0.0000
     19 O3         -0.1610    0.8710   -2.2390 O.3       1 BLA1        0.0000
     20 HO3         0.5360    0.2090   -2.3100 H         1 BLA1        0.0000
@<TRIPOS>BOND
     1   20   19 1 
     2   19   17 1 
     3   14   13 1 
     4   17   18 1 
     5   17   13 1 
     6   17    6 1 
     7    3    2 1 
     8    7    6 1 
     9   13    2 1 
    10   13   15 1 
    11    2    1 1 
    12    2    4 1 
    13    6    1 1 
    14    6    8 1 
    15   16   15 1 
    16    4    5 1 
    17   11    8 1 
    18   11   12 1 
    19    8    9 1 
    20    8   10 1 
