@<TRIPOS>MOLECULE
C:\Users\Praveer\PycharmProjects\pdb_to_mol2_converter\data\pdb\bleg.pdb
   44    44     0     0     0
SMALL
GASTEIGER

@<TRIPOS>ATOM
      1 C1          2.0120    1.3760   -0.1600 C.2       1 BLE1        0.0000
      2 O11         1.4270    2.1950    0.5990 O.co2     1 BLE1        0.0000
      3 O12         2.8240    1.6260   -1.1000 O.co2     1 BLE1        0.0000
      4 C2          1.4770   -0.0980   -0.0970 C.3       1 BLE1        0.0000
      5 O2          2.0470   -0.8720   -1.1170 O.3       1 BLE1        0.0000
      6 HO2         2.6270   -0.1960   -1.5060 H         1 BLE1        0.0000
      7 C6          1.5230   -1.9760    1.4300 C.3       1 BLE1        0.0000
      8 H6          1.9990   -2.6380    0.6740 H         1 BLE1        0.0000
      9 O6          1.9110   -0.6120    1.1660 O.3       1 BLE1        0.0000
     10 C3         -0.0390   -0.1490   -0.1290 C.3       1 BLE1        0.0000
     11 H31        -0.3920    0.2570   -1.1040 H         1 BLE1        0.0000
     12 H32        -0.4180    0.5220    0.6780 H         1 BLE1        0.0000
     13 C4         -0.5590   -1.5250    0.0830 C.3       1 BLE1        0.0000
     14 H4         -0.2680   -2.1650   -0.7860 H         1 BLE1        0.0000
     15 O4         -1.9730   -1.4470    0.1280 O.3       1 BLE1        0.0000
     16 HO4        -2.2020   -0.5940    0.5060 H         1 BLE1        0.0000
     17 C5         -0.0060   -2.1500    1.3500 C.3       1 BLE1        0.0000
     18 H5         -0.4140   -1.5630    2.2080 H         1 BLE1        0.0000
     19 N51        -0.5060   -3.5030    1.5190 N.am      1 BLE1        0.0000
     20 HN51       -1.1470   -3.6250    2.2660 H         1 BLE1        0.0000
     21 C51        -0.2000   -4.5600    0.7580 C.2       1 BLE1        0.0000
     22 O51         0.6370   -4.5410   -0.1350 O.2       1 BLE1        0.0000
     23 CT51       -0.9500   -5.8280    1.0690 C.3       1 BLE1        0.0000
     24 HT51       -1.9910   -5.7400    0.6950 H         1 BLE1        0.0000
     25 HT52       -0.9570   -6.0070    2.1630 H         1 BLE1        0.0000
     26 HT53       -0.4510   -6.6780    0.5590 H         1 BLE1        0.0000
     27 C7          2.2050   -2.2390    2.7890 C.3       1 BLE1        0.0000
     28 H7          1.7710   -1.4870    3.4960 H         1 BLE1        0.0000
     29 N71         3.6100   -1.8990    2.6170 N.am      1 BLE1        0.0000
     30 HN71        3.9370   -1.9710    1.6830 H         1 BLE1        0.0000
     31 C71         4.3630   -1.2330    3.5030 C.2       1 BLE1        0.0000
     32 O71         4.0100   -1.0220    4.6570 O.2       1 BLE1        0.0000
     33 CT71        5.6980   -0.7440    3.0030 C.3       1 BLE1        0.0000
     34 HT71        5.7670   -0.8600    1.9020 H         1 BLE1        0.0000
     35 HT72        6.5120   -1.3160    3.4920 H         1 BLE1        0.0000
     36 HT73        5.7980    0.3340    3.2560 H         1 BLE1        0.0000
     37 C8          1.9630   -3.6370    3.4020 C.3       1 BLE1        0.0000
     38 H8          1.9290   -4.3900    2.5810 H         1 BLE1        0.0000
     39 O8          0.7480   -3.6810    4.1430 O.3       1 BLE1        0.0000
     40 HO8         0.9360   -3.1630    4.9310 H         1 BLE1        0.0000
     41 C9          3.0510   -4.0740    4.3970 C.3       1 BLE1        0.0000
     42 H91         3.1590   -3.3320    5.2160 H         1 BLE1        0.0000
     43 H92         4.0300   -4.1830    3.8880 H         1 BLE1        0.0000
     44 H93         2.7910   -5.0550    4.8490 H         1 BLE1        0.0000
@<TRIPOS>BOND
     1    6    5 1 
     2    5    4 1 
     3   11   10 1 
     4    3    1 ar
     5   14   13 1 
     6    1    4 1 
     7    1    2 ar
     8   22   21 2 
     9   10    4 1 
    10   10   13 1 
    11   10   12 1 
    12    4    9 1 
    13   13   15 1 
    14   13   17 1 
    15   15   16 1 
    16   26   23 1 
    17    8    7 1 
    18   24   23 1 
    19   21   23 1 
    20   21   19 am
    21   23   25 1 
    22    9    7 1 
    23   17    7 1 
    24   17   19 1 
    25   17   18 1 
    26    7   27 1 
    27   19   20 1 
    28   30   29 1 
    29   34   33 1 
    30   38   37 1 
    31   29   27 1 
    32   29   31 am
    33   27   37 1 
    34   27   28 1 
    35   33   36 1 
    36   33   35 1 
    37   33   31 1 
    38   37   39 1 
    39   37   41 1 
    40   31   32 2 
    41   43   41 1 
    42   39   40 1 
    43   41   44 1 
    44   41   42 1 
