@<TRIPOS>MOLECULE
C:\Users\Praveer\PycharmProjects\pdb_to_mol2_converter\data\pdb\blfru.pdb
   24    24     0     0     0
SMALL
GASTEIGER

@<TRIPOS>ATOM
      1 O5          1.4870    0.2560    0.4730 O.3       1 BLF1        0.0000
      2 C2          1.9430    1.5560    0.1060 C.3       1 BLF1        0.0000
      3 O2          2.9030    1.6790    1.1080 O.3       1 BLF1        0.0000
      4 HO2         2.6830    0.9490    1.6910 H         1 BLF1        0.0000
      5 C5          0.1110    0.1060    0.0770 C.3       1 BLF1        0.0000
      6 H5          0.0980   -0.4670   -0.8820 H         1 BLF1        0.0000
      7 C6         -0.6030   -0.6920    1.1390 C.3       1 BLF1        0.0000
      8 H61        -1.6990   -0.6840    0.9410 H         1 BLF1        0.0000
      9 H62        -0.4270   -0.2360    2.1410 H         1 BLF1        0.0000
     10 O6         -0.1660   -2.0510    1.1460 O.3       1 BLF1        0.0000
     11 HO6         0.7970   -2.0800    1.1890 H         1 BLF1        0.0000
     12 C1          2.5830    1.5270   -1.2850 C.3       1 BLF1        0.0000
     13 H11         3.4750    0.8620   -1.2530 H         1 BLF1        0.0000
     14 H12         2.9440    2.5480   -1.5360 H         1 BLF1        0.0000
     15 O1          1.7450    1.0510   -2.3570 O.3       1 BLF1        0.0000
     16 HO1         0.8390    1.3890   -2.2810 H         1 BLF1        0.0000
     17 C3          0.6890    2.4630    0.2960 C.3       1 BLF1        0.0000
     18 H3          0.7740    3.3720   -0.3370 H         1 BLF1        0.0000
     19 O3          0.4500    2.8720    1.6330 O.3       1 BLF1        0.0000
     20 HO3         1.2840    3.1780    2.0150 H         1 BLF1        0.0000
     21 C4         -0.4420    1.5230   -0.1380 C.3       1 BLF1        0.0000
     22 H4         -1.3380    1.6750    0.5090 H         1 BLF1        0.0000
     23 O4         -0.8410    1.7860   -1.4650 O.3       1 BLF1        0.0000
     24 HO4        -1.7920    1.9480   -1.5000 H         1 BLF1        0.0000
@<TRIPOS>BOND
     1   15   16 1 
     2   15   12 1 
     3   14   12 1 
     4   24   23 1 
     5   23   21 1 
     6   12   13 1 
     7   12    2 1 
     8    6    5 1 
     9   18   17 1 
    10   21    5 1 
    11   21   17 1 
    12   21   22 1 
    13    5    1 1 
    14    5    7 1 
    15    2   17 1 
    16    2    1 1 
    17    2    3 1 
    18   17   19 1 
    19    8    7 1 
    20    3    4 1 
    21    7   10 1 
    22    7    9 1 
    23   10   11 1 
    24   19   20 1 
