@<TRIPOS>MOLECULE
C:\Users\Praveer\PycharmProjects\pdb_to_mol2_converter\data\pdb\blgal.pdb
   24    24     0     0     0
SMALL
GASTEIGER

@<TRIPOS>ATOM
      1 C1          1.4230   -0.0010    0.0410 C.3       1 BLG1        0.0000
      2 H1          1.7360   -0.5190   -0.8960 H         1 BLG1        0.0000
      3 O1          1.9330   -0.7180    1.1310 O.3       1 BLG1        0.0000
      4 HO1         2.8880   -0.6020    1.1060 H         1 BLG1        0.0000
      5 C5         -0.5640    0.7300   -1.0400 C.3       1 BLG1        0.0000
      6 H5         -0.1860    0.2530   -1.9760 H         1 BLG1        0.0000
      7 O5         -0.0040    0.0640    0.1040 O.3       1 BLG1        0.0000
      8 C2          1.9900    1.4140    0.0680 C.3       1 BLG1        0.0000
      9 H2          1.7040    1.8730    1.0450 H         1 BLG1        0.0000
     10 O2          3.4200    1.4260   -0.0090 O.3       1 BLG1        0.0000
     11 HO2         3.6880    2.3410   -0.1770 H         1 BLG1        0.0000
     12 C3          1.3920    2.2510   -1.0480 C.3       1 BLG1        0.0000
     13 H3          1.7400    1.8260   -2.0210 H         1 BLG1        0.0000
     14 O3          1.8490    3.6010   -0.9950 O.3       1 BLG1        0.0000
     15 HO3         1.2180    4.0980   -0.4560 H         1 BLG1        0.0000
     16 C4         -0.1210    2.1840   -1.0150 C.3       1 BLG1        0.0000
     17 H4         -0.5190    2.6990   -1.9230 H         1 BLG1        0.0000
     18 O4         -0.6510    2.8500    0.1280 O.3       1 BLG1        0.0000
     19 HO4        -0.6400    2.2370    0.8740 H         1 BLG1        0.0000
     20 C6         -2.0660    0.5540   -1.0010 C.3       1 BLG1        0.0000
     21 H61        -2.5390    1.1480   -1.8160 H         1 BLG1        0.0000
     22 H62        -2.4820    0.9160   -0.0330 H         1 BLG1        0.0000
     23 O6         -2.4220   -0.8160   -1.1810 O.3       1 BLG1        0.0000
     24 HO6        -2.0630   -1.3310   -0.4480 H         1 BLG1        0.0000
@<TRIPOS>BOND
     1   13   12 1 
     2    6    5 1 
     3   17   16 1 
     4   21   20 1 
     5   23   20 1 
     6   23   24 1 
     7   12   16 1 
     8   12   14 1 
     9   12    8 1 
    10    5   16 1 
    11    5   20 1 
    12    5    7 1 
    13   16   18 1 
    14   20   22 1 
    15   14   15 1 
    16    2    1 1 
    17   11   10 1 
    18   10    8 1 
    19    1    8 1 
    20    1    7 1 
    21    1    3 1 
    22    8    9 1 
    23   18   19 1 
    24    4    3 1 
