@<TRIPOS>MOLECULE
C:\Users\Praveer\PycharmProjects\pdb_to_mol2_converter\data\pdb\blgana.pdb
   30    30     0     0     0
SMALL
GASTEIGER

@<TRIPOS>ATOM
      1 C1          1.4120   -0.0610   -0.0920 C.3       1 BLG1        0.0000
      2 H1          1.7030   -0.5470   -1.0520 H         1 BLG1        0.0000
      3 O1          1.9260   -0.8430    0.9410 O.3       1 BLG1        0.0000
      4 HO1         2.2120   -0.2540    1.6590 H         1 BLG1        0.0000
      5 C5         -0.5790    0.6650   -1.1580 C.3       1 BLG1        0.0000
      6 H5         -0.2000    0.1630   -2.0820 H         1 BLG1        0.0000
      7 O5         -0.0110    0.0330    0.0040 O.3       1 BLG1        0.0000
      8 C2          1.9680    1.3590   -0.0210 C.3       1 BLG1        0.0000
      9 H2          1.5730    1.8210    0.9200 H         1 BLG1        0.0000
     10 N           3.4200    1.4750    0.0290 N.am      1 BLG1        0.0000
     11 HN          3.8670    1.8100   -0.7940 H         1 BLG1        0.0000
     12 C           4.1350    1.2950    1.1470 C.2       1 BLG1        0.0000
     13 O           3.6080    0.9760    2.2070 O.2       1 BLG1        0.0000
     14 CT          5.6220    1.5030    1.0420 C.3       1 BLG1        0.0000
     15 HT1         5.8400    2.5790    0.8750 H         1 BLG1        0.0000
     16 HT2         6.0290    0.9000    0.2050 H         1 BLG1        0.0000
     17 HT3         6.1030    1.1810    1.9900 H         1 BLG1        0.0000
     18 C3          1.3920    2.1520   -1.1780 C.3       1 BLG1        0.0000
     19 H3          1.7510    1.6800   -2.1240 H         1 BLG1        0.0000
     20 O3          1.8780    3.4850   -1.1760 O.3       1 BLG1        0.0000
     21 HO3         1.3050    4.0040   -0.5940 H         1 BLG1        0.0000
     22 C4         -0.1240    2.1130   -1.1690 C.3       1 BLG1        0.0000
     23 H4         -0.5000    2.6090   -2.0960 H         1 BLG1        0.0000
     24 O4         -0.6640    2.8170   -0.0540 O.3       1 BLG1        0.0000
     25 HO4        -0.6500    2.2330    0.7160 H         1 BLG1        0.0000
     26 C6         -2.0800    0.4950   -1.1230 C.3       1 BLG1        0.0000
     27 H61        -2.5460    1.0760   -1.9530 H         1 BLG1        0.0000
     28 H62        -2.4990    0.8750   -0.1640 H         1 BLG1        0.0000
     29 O6         -2.4390   -0.8760   -1.2840 O.3       1 BLG1        0.0000
     30 HO6        -2.0910   -1.3830   -0.5400 H         1 BLG1        0.0000
@<TRIPOS>BOND
     1   19   18 1 
     2   23   22 1 
     3    6    5 1 
     4   27   26 1 
     5   29   26 1 
     6   29   30 1 
     7   18   20 1 
     8   18   22 1 
     9   18    8 1 
    10   20   21 1 
    11   22    5 1 
    12   22   24 1 
    13    5   26 1 
    14    5    7 1 
    15   26   28 1 
    16    2    1 1 
    17   11   10 1 
    18    1    8 1 
    19    1    7 1 
    20    1    3 1 
    21   24   25 1 
    22    8   10 1 
    23    8    9 1 
    24   10   12 am
    25   16   14 1 
    26   15   14 1 
    27    3    4 1 
    28   14   12 1 
    29   14   17 1 
    30   12   13 2 
