@<TRIPOS>MOLECULE
C:\Users\Praveer\PycharmProjects\pdb_to_mol2_converter\data\pdb\blgalf.pdb
   24    24     0     0     0
SMALL
GASTEIGER

@<TRIPOS>ATOM
      1 O4          1.5110    0.3330   -0.6010 O.3       1 BLG1        0.0000
      2 C1          2.0560    1.4810    0.0390 C.3       1 BLG1        0.0000
      3 H1          2.9270    1.8210   -0.5620 H         1 BLG1        0.0000
      4 O1          2.4920    1.2210    1.3360 O.3       1 BLG1        0.0000
      5 HO1         1.6960    1.0370    1.8500 H         1 BLG1        0.0000
      6 C4          0.1370    0.2080   -0.1980 C.3       1 BLG1        0.0000
      7 H4          0.1260   -0.5560    0.6140 H         1 BLG1        0.0000
      8 C2          0.9060    2.4980    0.0270 C.3       1 BLG1        0.0000
      9 H2          1.0470    3.2910    0.7930 H         1 BLG1        0.0000
     10 O2          0.7410    3.1240   -1.2350 O.3       1 BLG1        0.0000
     11 HO2         1.3170    3.8950   -1.2980 H         1 BLG1        0.0000
     12 C3         -0.2840    1.5830    0.3640 C.3       1 BLG1        0.0000
     13 H3         -1.2300    1.9590   -0.0750 H         1 BLG1        0.0000
     14 O3         -0.4550    1.5150    1.7640 O.3       1 BLG1        0.0000
     15 HO3        -1.3610    1.2530    1.9650 H         1 BLG1        0.0000
     16 C5         -0.6700   -0.3630   -1.3520 C.3       1 BLG1        0.0000
     17 H5         -0.2620   -1.3870   -1.5430 H         1 BLG1        0.0000
     18 O5         -2.0440   -0.5130   -0.9950 O.3       1 BLG1        0.0000
     19 HO5        -2.4730    0.2170   -1.4650 H         1 BLG1        0.0000
     20 C6         -0.5770    0.3990   -2.6650 C.3       1 BLG1        0.0000
     21 H61        -1.0580   -0.1990   -3.4740 H         1 BLG1        0.0000
     22 H62         0.4900    0.5420   -2.9480 H         1 BLG1        0.0000
     23 O6         -1.2300    1.6720   -2.6030 O.3       1 BLG1        0.0000
     24 HO6        -0.5730    2.2950   -2.2390 H         1 BLG1        0.0000
@<TRIPOS>BOND
     1   21   20 1 
     2   22   20 1 
     3   20   23 1 
     4   20   16 1 
     5   23   24 1 
     6   17   16 1 
     7   19   18 1 
     8   16   18 1 
     9   16    6 1 
    10   11   10 1 
    11   10    8 1 
    12    1    6 1 
    13    1    2 1 
    14    3    2 1 
    15    6   12 1 
    16    6    7 1 
    17   13   12 1 
    18    8    2 1 
    19    8   12 1 
    20    8    9 1 
    21    2    4 1 
    22   12   14 1 
    23    4    5 1 
    24   14   15 1 
