@<TRIPOS>MOLECULE
C:\Users\Praveer\PycharmProjects\pdb_to_mol2_converter\data\pdb\blglc.pdb
   24    24     0     0     0
SMALL
GASTEIGER

@<TRIPOS>ATOM
      1 C1          1.4380    0.0190   -0.0310 C.3       1 BLG1        0.0000
      2 H1          1.7340   -0.4680   -0.9880 H         1 BLG1        0.0000
      3 O1          1.9740   -0.7270    1.0270 O.3       1 BLG1        0.0000
      4 HO1         2.9310   -0.6840    0.9380 H         1 BLG1        0.0000
      5 C5         -0.5750    0.7260   -1.0780 C.3       1 BLG1        0.0000
      6 H5         -0.2340    0.2220   -2.0150 H         1 BLG1        0.0000
      7 O5          0.0150    0.0820    0.0630 O.3       1 BLG1        0.0000
      8 C2          1.9750    1.4440    0.0220 C.3       1 BLG1        0.0000
      9 H2          1.6300    1.8890    0.9870 H         1 BLG1        0.0000
     10 O2          3.4110    1.4870    0.0050 O.3       1 BLG1        0.0000
     11 HO2         3.7120    2.1910    0.5910 H         1 BLG1        0.0000
     12 C3          1.3870    2.2620   -1.1130 C.3       1 BLG1        0.0000
     13 H3          1.7400    1.8190   -2.0770 H         1 BLG1        0.0000
     14 O3          1.8270    3.6220   -1.0720 O.3       1 BLG1        0.0000
     15 HO3         2.6790    3.6900   -1.5170 H         1 BLG1        0.0000
     16 C4         -0.1270    2.1790   -1.0990 C.3       1 BLG1        0.0000
     17 H4         -0.5020    2.6710   -0.1690 H         1 BLG1        0.0000
     18 O4         -0.6910    2.8540   -2.2160 O.3       1 BLG1        0.0000
     19 HO4        -0.3780    3.7670   -2.1950 H         1 BLG1        0.0000
     20 C6         -2.0750    0.5610   -0.9770 C.3       1 BLG1        0.0000
     21 H61        -2.5730    1.0440   -1.8490 H         1 BLG1        0.0000
     22 H62        -2.4520    1.0520   -0.0510 H         1 BLG1        0.0000
     23 O6         -2.4400   -0.8190   -0.9550 O.3       1 BLG1        0.0000
     24 HO6        -1.9790   -1.2410   -0.2190 H         1 BLG1        0.0000
@<TRIPOS>BOND
     1   18   19 1 
     2   18   16 1 
     3   13   12 1 
     4    6    5 1 
     5   21   20 1 
     6   15   14 1 
     7   12   16 1 
     8   12   14 1 
     9   12    8 1 
    10   16    5 1 
    11   16   17 1 
    12    5   20 1 
    13    5    7 1 
    14    2    1 1 
    15   20   23 1 
    16   20   22 1 
    17   23   24 1 
    18    1    8 1 
    19    1    7 1 
    20    1    3 1 
    21   10    8 1 
    22   10   11 1 
    23    8    9 1 
    24    4    3 1 
