@<TRIPOS>MOLECULE
C:\Users\Praveer\PycharmProjects\pdb_to_mol2_converter\data\pdb\blglna.pdb
   30    30     0     0     0
SMALL
GASTEIGER

@<TRIPOS>ATOM
      1 C1          1.2930   -0.0400   -0.1040 C.3       1 BLG1        0.0000
      2 H1          1.5760   -0.4910   -1.0840 H         1 BLG1        0.0000
      3 O1          1.8410   -0.8360    0.9020 O.3       1 BLG1        0.0000
      4 HO1         1.5110   -0.4990    1.7380 H         1 BLG1        0.0000
      5 C5         -0.7310    0.6660   -1.0930 C.3       1 BLG1        0.0000
      6 H5         -0.4110    0.1760   -2.0440 H         1 BLG1        0.0000
      7 O5         -0.1220    0.0020    0.0270 O.3       1 BLG1        0.0000
      8 C2          1.8520    1.3650    0.0050 C.3       1 BLG1        0.0000
      9 H2          1.4900    1.7810    0.9810 H         1 BLG1        0.0000
     10 N           3.3130    1.3710    0.0330 N.am      1 BLG1        0.0000
     11 HN          3.7670    0.5390   -0.2710 H         1 BLG1        0.0000
     12 C           4.0450    2.3710    0.5380 C.2       1 BLG1        0.0000
     13 O           3.5290    3.3970    0.9630 O.2       1 BLG1        0.0000
     14 CT          5.5370    2.1800    0.5530 C.3       1 BLG1        0.0000
     15 HT1         5.9500    2.3870   -0.4560 H         1 BLG1        0.0000
     16 HT2         5.7890    1.1440    0.8560 H         1 BLG1        0.0000
     17 HT3         5.9880    2.8910    1.2770 H         1 BLG1        0.0000
     18 C3          1.2460    2.2060   -1.1060 C.3       1 BLG1        0.0000
     19 H3          1.6200    1.8080   -2.0810 H         1 BLG1        0.0000
     20 O3          1.6520    3.5680   -1.0190 O.3       1 BLG1        0.0000
     21 HO3         2.2960    3.6700   -0.2930 H         1 BLG1        0.0000
     22 C4         -0.2690    2.1140   -1.0970 C.3       1 BLG1        0.0000
     23 H4         -0.6450    2.5990   -0.1630 H         1 BLG1        0.0000
     24 O4         -0.8260    2.8070   -2.2050 O.3       1 BLG1        0.0000
     25 HO4        -0.3690    3.6570   -2.2620 H         1 BLG1        0.0000
     26 C6         -2.2320    0.5160   -0.9720 C.3       1 BLG1        0.0000
     27 H61        -2.7340    1.0270   -1.8250 H         1 BLG1        0.0000
     28 H62        -2.5910    0.9900   -0.0310 H         1 BLG1        0.0000
     29 O6         -2.6170   -0.8590   -0.9830 O.3       1 BLG1        0.0000
     30 HO6        -2.1820   -1.3090   -0.2500 H         1 BLG1        0.0000
@<TRIPOS>BOND
     1   25   24 1 
     2   24   22 1 
     3   19   18 1 
     4    6    5 1 
     5   27   26 1 
     6   18   22 1 
     7   18   20 1 
     8   18    8 1 
     9   22    5 1 
    10   22   23 1 
    11    5   26 1 
    12    5    7 1 
    13    2    1 1 
    14   20   21 1 
    15   29   26 1 
    16   29   30 1 
    17   26   28 1 
    18   15   14 1 
    19   11   10 1 
    20    1    8 1 
    21    1    7 1 
    22    1    3 1 
    23    8   10 1 
    24    8    9 1 
    25   10   12 am
    26   12   14 1 
    27   12   13 2 
    28   14   16 1 
    29   14   17 1 
    30    3    4 1 
