@<TRIPOS>MOLECULE
C:\Users\Praveer\PycharmProjects\pdb_to_mol2_converter\data\pdb\blguna.pdb
   30    30     0     0     0
SMALL
GASTEIGER

@<TRIPOS>ATOM
      1 C1          1.4250   -0.0400   -0.1250 C.3       1 BLG1        0.0000
      2 H1          1.6720   -0.4770   -1.1210 H         1 BLG1        0.0000
      3 O1          1.9160   -0.9080    0.8540 O.3       1 BLG1        0.0000
      4 HO1         1.6250   -0.5700    1.7020 H         1 BLG1        0.0000
      5 C5         -0.5340    0.8690   -1.0710 C.3       1 BLG1        0.0000
      6 H5         -0.2180    0.4200   -2.0450 H         1 BLG1        0.0000
      7 O5          0.0130    0.1000    0.0160 O.3       1 BLG1        0.0000
      8 C2          2.0900    1.3150    0.0290 C.3       1 BLG1        0.0000
      9 H2          1.7920    1.7170    1.0300 H         1 BLG1        0.0000
     10 N           3.5450    1.2320    0.0340 N.am      1 BLG1        0.0000
     11 HN          3.9320    0.3470   -0.2030 H         1 BLG1        0.0000
     12 C           4.3460    2.2460    0.3770 C.2       1 BLG1        0.0000
     13 O           3.9110    3.3390    0.7110 O.2       1 BLG1        0.0000
     14 CT          5.8260    1.9760    0.3330 C.3       1 BLG1        0.0000
     15 HT1         6.1590    1.8720   -0.7200 H         1 BLG1        0.0000
     16 HT2         6.0640    1.0490    0.8930 H         1 BLG1        0.0000
     17 HT3         6.3630    2.8300    0.7980 H         1 BLG1        0.0000
     18 C3          1.5320    2.2590   -1.0200 C.3       1 BLG1        0.0000
     19 H3          1.9010    3.2950   -0.8220 H         1 BLG1        0.0000
     20 O3          1.9840    1.8770   -2.3140 O.3       1 BLG1        0.0000
     21 HO3         2.7040    2.4590   -2.5820 H         1 BLG1        0.0000
     22 C4          0.0180    2.2860   -0.9900 C.3       1 BLG1        0.0000
     23 H4         -0.3510    2.8690   -1.8670 H         1 BLG1        0.0000
     24 O4         -0.4530    2.9450    0.1790 O.3       1 BLG1        0.0000
     25 HO4        -0.4000    2.3410    0.9270 H         1 BLG1        0.0000
     26 C6         -2.0440    0.8020   -1.0010 C.3       1 BLG1        0.0000
     27 H61        -2.4850    1.4690   -1.7760 H         1 BLG1        0.0000
     28 H62        -2.4070    1.1490   -0.0080 H         1 BLG1        0.0000
     29 O6         -2.5100   -0.5260   -1.2350 O.3       1 BLG1        0.0000
     30 HO6        -2.1300   -1.1130   -0.5710 H         1 BLG1        0.0000
@<TRIPOS>BOND
     1   21   20 1 
     2   20   18 1 
     3    6    5 1 
     4   23   22 1 
     5   27   26 1 
     6   29   26 1 
     7   29   30 1 
     8    2    1 1 
     9    5   26 1 
    10    5   22 1 
    11    5    7 1 
    12   18   22 1 
    13   18   19 1 
    14   18    8 1 
    15   26   28 1 
    16   22   24 1 
    17   15   14 1 
    18   11   10 1 
    19    1    7 1 
    20    1    8 1 
    21    1    3 1 
    22    8   10 1 
    23    8    9 1 
    24   10   12 am
    25   24   25 1 
    26   14   12 1 
    27   14   17 1 
    28   14   16 1 
    29   12   13 2 
    30    3    4 1 
