@<TRIPOS>MOLECULE
C:\Users\Praveer\PycharmProjects\pdb_to_mol2_converter\data\pdb\blgul.pdb
   24    24     0     0     0
SMALL
GASTEIGER

@<TRIPOS>ATOM
      1 C1          1.4330    0.0350    0.0000 C.3       1 BLG1        0.0000
      2 H1          1.7130   -0.5080   -0.9320 H         1 BLG1        0.0000
      3 O1          1.9840   -0.6500    1.0920 O.3       1 BLG1        0.0000
      4 HO1         2.9340   -0.5020    1.0560 H         1 BLG1        0.0000
      5 C5         -0.5870    0.7150   -1.0380 C.3       1 BLG1        0.0000
      6 H5         -0.2280    0.2120   -1.9690 H         1 BLG1        0.0000
      7 O5          0.0080    0.0910    0.1110 O.3       1 BLG1        0.0000
      8 C2          1.9960    1.4530   -0.0350 C.3       1 BLG1        0.0000
      9 H2          1.7370    1.9350    0.9390 H         1 BLG1        0.0000
     10 O2          3.4250    1.4740   -0.1430 O.3       1 BLG1        0.0000
     11 HO2         3.6470    1.3920   -1.0810 H         1 BLG1        0.0000
     12 C3          1.3510    2.2670   -1.1450 C.3       1 BLG1        0.0000
     13 H3          1.6530    3.3350   -1.0080 H         1 BLG1        0.0000
     14 O3          1.8120    1.8530   -2.4330 O.3       1 BLG1        0.0000
     15 HO3         1.9390    2.6200   -3.0030 H         1 BLG1        0.0000
     16 C4         -0.1550    2.1730   -1.0690 C.3       1 BLG1        0.0000
     17 H4         -0.6010    2.6660   -1.9660 H         1 BLG1        0.0000
     18 O4         -0.6390    2.8640    0.0750 O.3       1 BLG1        0.0000
     19 HO4        -0.5840    2.2730    0.8370 H         1 BLG1        0.0000
     20 C6         -2.0860    0.5300   -0.9580 C.3       1 BLG1        0.0000
     21 H61        -2.5800    1.0900   -1.7830 H         1 BLG1        0.0000
     22 H62        -2.4790    0.9250    0.0060 H         1 BLG1        0.0000
     23 O6         -2.4370   -0.8480   -1.0780 O.3       1 BLG1        0.0000
     24 HO6        -2.0250   -1.3360   -0.3540 H         1 BLG1        0.0000
@<TRIPOS>BOND
     1   15   14 1 
     2   14   12 1 
     3    6    5 1 
     4   17   16 1 
     5   21   20 1 
     6   12   16 1 
     7   12   13 1 
     8   12    8 1 
     9   11   10 1 
    10   23   20 1 
    11   23   24 1 
    12   16    5 1 
    13   16   18 1 
    14    5   20 1 
    15    5    7 1 
    16   20   22 1 
    17    2    1 1 
    18   10    8 1 
    19    8    1 1 
    20    8    9 1 
    21    1    7 1 
    22    1    3 1 
    23   18   19 1 
    24    4    3 1 
