@<TRIPOS>MOLECULE
C:\Users\Praveer\PycharmProjects\pdb_to_mol2_converter\data\pdb\blgula.pdb
   22    22     0     0     0
SMALL
GASTEIGER

@<TRIPOS>ATOM
      1 C1          1.4710   -0.0140   -0.0210 C.3       1 BLG1        0.0000
      2 H1          1.7620   -0.5230   -0.9680 H         1 BLG1        0.0000
      3 O1          2.0250   -0.7320    1.0450 O.3       1 BLG1        0.0000
      4 HO1         1.6550   -0.3260    1.8310 H         1 BLG1        0.0000
      5 C5         -0.5900    0.6130   -1.0070 C.3       1 BLG1        0.0000
      6 H5         -0.2880    0.0920   -1.9410 H         1 BLG1        0.0000
      7 O5          0.0530   -0.0320    0.1200 O.3       1 BLG1        0.0000
      8 C2          1.9640    1.4350   -0.0360 C.3       1 BLG1        0.0000
      9 H2          1.6330    1.9050    0.9210 H         1 BLG1        0.0000
     10 O2          3.3910    1.5660   -0.0890 O.3       1 BLG1        0.0000
     11 HO2         3.6650    1.2860   -0.9700 H         1 BLG1        0.0000
     12 C3          1.3160    2.1950   -1.1800 C.3       1 BLG1        0.0000
     13 H3          1.6040    3.2710   -1.0840 H         1 BLG1        0.0000
     14 O3          1.7870    1.7380   -2.4510 O.3       1 BLG1        0.0000
     15 HO3         1.5830    2.3950   -3.1240 H         1 BLG1        0.0000
     16 C4         -0.1860    2.0860   -1.0900 C.3       1 BLG1        0.0000
     17 H4         -0.6550    2.5370   -1.9970 H         1 BLG1        0.0000
     18 O4         -0.6460    2.8230    0.0380 O.3       1 BLG1        0.0000
     19 HO4        -1.4690    2.3480    0.3070 H         1 BLG1        0.0000
     20 C6         -2.1190    0.5330   -0.9120 C.2       1 BLG1        0.0000
     21 O61        -2.6850    0.0190   -1.9100 O.co2     1 BLG1        0.0000
     22 O62        -2.6280    1.0760    0.1070 O.co2     1 BLG1        0.0000
@<TRIPOS>BOND
     1   15   14 1 
     2   14   12 1 
     3   17   16 1 
     4    6    5 1 
     5   21   20 ar
     6   12   16 1 
     7   12   13 1 
     8   12    8 1 
     9   16    5 1 
    10   16   18 1 
    11    5   20 1 
    12    5    7 1 
    13   11   10 1 
    14    2    1 1 
    15   20   22 ar
    16   10    8 1 
    17    8    1 1 
    18    8    9 1 
    19    1    7 1 
    20    1    3 1 
    21   18   19 1 
    22    3    4 1 
