@<TRIPOS>MOLECULE
C:\Users\Praveer\PycharmProjects\pdb_to_mol2_converter\data\pdb\blidna.pdb
   30    30     0     0     0
SMALL
GASTEIGER

@<TRIPOS>ATOM
      1 C1          1.4150   -0.0400    0.0310 C.3       1 BLI1        0.0000
      2 H1          1.6930   -0.5390    0.9890 H         1 BLI1        0.0000
      3 O1          1.9360   -0.7760   -1.0360 O.3       1 BLI1        0.0000
      4 HO1         1.5930   -1.6690   -0.9560 H         1 BLI1        0.0000
      5 C5         -0.5980    0.6720    1.0340 C.3       1 BLI1        0.0000
      6 H5         -0.2510    0.1660    1.9690 H         1 BLI1        0.0000
      7 O5         -0.0030    0.0290   -0.1080 O.3       1 BLI1        0.0000
      8 C2          1.9860    1.3670   -0.0240 C.3       1 BLI1        0.0000
      9 H2          3.0820    1.2690    0.1880 H         1 BLI1        0.0000
     10 N           1.9050    1.9700   -1.3480 N.am      1 BLI1        0.0000
     11 HN          1.4320    1.4240   -2.0320 H         1 BLI1        0.0000
     12 C           2.5660    3.0830   -1.6910 C.2       1 BLI1        0.0000
     13 O           3.2460    3.7140   -0.8930 O.2       1 BLI1        0.0000
     14 CT          2.4420    3.5270   -3.1240 C.3       1 BLI1        0.0000
     15 HT1         1.5120    4.1180   -3.2510 H         1 BLI1        0.0000
     16 HT2         2.4290    2.6490   -3.8000 H         1 BLI1        0.0000
     17 HT3         3.3120    4.1690   -3.3780 H         1 BLI1        0.0000
     18 C3          1.3700    2.1950    1.0900 C.3       1 BLI1        0.0000
     19 H3          1.6730    3.2630    0.9810 H         1 BLI1        0.0000
     20 O3          1.8640    1.7450    2.3470 O.3       1 BLI1        0.0000
     21 HO3         2.5200    2.3710    2.6740 H         1 BLI1        0.0000
     22 C4         -0.1430    2.1250    1.0840 C.3       1 BLI1        0.0000
     23 H4         -0.5330    2.5890    2.0210 H         1 BLI1        0.0000
     24 O4         -0.6870    2.8680    0.0000 O.3       1 BLI1        0.0000
     25 HO4        -0.3820    2.4650   -0.8180 H         1 BLI1        0.0000
     26 C6         -2.1010    0.5140    0.9600 C.3       1 BLI1        0.0000
     27 H61        -2.4880    0.9120   -0.0050 H         1 BLI1        0.0000
     28 H62        -2.5790    1.0940    1.7820 H         1 BLI1        0.0000
     29 O6         -2.4830   -0.8550    1.0950 O.3       1 BLI1        0.0000
     30 HO6        -2.1570   -1.3470    0.3340 H         1 BLI1        0.0000
@<TRIPOS>BOND
     1   16   14 1 
     2   17   14 1 
     3   15   14 1 
     4   14   12 1 
     5   11   10 1 
     6   12   10 am
     7   12   13 2 
     8   10    8 1 
     9    3    4 1 
    10    3    1 1 
    11   25   24 1 
    12    7    1 1 
    13    7    5 1 
    14    8    1 1 
    15    8    9 1 
    16    8   18 1 
    17   27   26 1 
    18   24   22 1 
    19    1    2 1 
    20   30   29 1 
    21   26    5 1 
    22   26   29 1 
    23   26   28 1 
    24   19   18 1 
    25    5   22 1 
    26    5    6 1 
    27   22   18 1 
    28   22   23 1 
    29   18   20 1 
    30   20   21 1 
