@<TRIPOS>MOLECULE
C:\Users\Praveer\PycharmProjects\pdb_to_mol2_converter\data\pdb\blido.pdb
   24    24     0     0     0
SMALL
GASTEIGER

@<TRIPOS>ATOM
      1 C1          1.4520    0.0670   -0.0180 C.3       1 BLI1        0.0000
      2 H1          1.7610   -0.4420   -0.9610 H         1 BLI1        0.0000
      3 O1          1.9810   -0.6500    1.0570 O.3       1 BLI1        0.0000
      4 HO1         1.5860   -0.2420    1.8320 H         1 BLI1        0.0000
      5 C5         -0.5810    0.7060   -1.0390 C.3       1 BLI1        0.0000
      6 H5         -0.2490    0.1910   -1.9730 H         1 BLI1        0.0000
      7 O5          0.0290    0.0620    0.0940 O.3       1 BLI1        0.0000
      8 C2          1.9760    1.5030    0.0010 C.3       1 BLI1        0.0000
      9 H2          3.0800    1.4580   -0.1610 H         1 BLI1        0.0000
     10 O2          1.7590    2.1950    1.2420 O.3       1 BLI1        0.0000
     11 HO2         2.5830    2.2380    1.7400 H         1 BLI1        0.0000
     12 C3          1.3610    2.2740   -1.1520 C.3       1 BLI1        0.0000
     13 H3          1.6540    3.3490   -1.0660 H         1 BLI1        0.0000
     14 O3          1.8740    1.7950   -2.3920 O.3       1 BLI1        0.0000
     15 HO3         2.1130    2.5310   -2.9660 H         1 BLI1        0.0000
     16 C4         -0.1480    2.1690   -1.1240 C.3       1 BLI1        0.0000
     17 H4         -0.5690    2.6070   -2.0600 H         1 BLI1        0.0000
     18 O4         -0.6700    2.9250   -0.0410 O.3       1 BLI1        0.0000
     19 HO4        -0.1480    2.6900    0.7440 H         1 BLI1        0.0000
     20 C6         -2.0810    0.5380   -0.9260 C.3       1 BLI1        0.0000
     21 H61        -2.5870    1.1010   -1.7420 H         1 BLI1        0.0000
     22 H62        -2.4420    0.9460    0.0460 H         1 BLI1        0.0000
     23 O6         -2.4530   -0.8370   -1.0280 O.3       1 BLI1        0.0000
     24 HO6        -2.0210   -1.3210   -0.3140 H         1 BLI1        0.0000
@<TRIPOS>BOND
     1   15   14 1 
     2   14   12 1 
     3   17   16 1 
     4    6    5 1 
     5   21   20 1 
     6   12   16 1 
     7   12   13 1 
     8   12    8 1 
     9   16    5 1 
    10   16   18 1 
    11    5   20 1 
    12    5    7 1 
    13   23   20 1 
    14   23   24 1 
    15    2    1 1 
    16   20   22 1 
    17    9    8 1 
    18   18   19 1 
    19    1    8 1 
    20    1    7 1 
    21    1    3 1 
    22    8   10 1 
    23    3    4 1 
    24   10   11 1 
