@<TRIPOS>MOLECULE
C:\Users\Praveer\PycharmProjects\pdb_to_mol2_converter\data\pdb\blman.pdb
   24    24     0     0     0
SMALL
GASTEIGER

@<TRIPOS>ATOM
      1 C1          1.4260    0.0200   -0.0200 C.3       1 BLM1        0.0000
      2 H1          1.7590   -0.4550   -0.9720 H         1 BLM1        0.0000
      3 O1          1.9260   -0.7350    1.0400 O.3       1 BLM1        0.0000
      4 HO1         1.6830   -0.2230    1.8190 H         1 BLM1        0.0000
      5 C5         -0.5620    0.7270   -1.1000 C.3       1 BLM1        0.0000
      6 H5         -0.2220    0.2210   -2.0360 H         1 BLM1        0.0000
      7 O5          0.0010    0.0480    0.0360 O.3       1 BLM1        0.0000
      8 C2          1.9600    1.4440    0.0810 C.3       1 BLM1        0.0000
      9 H2          3.0730    1.4000    0.0030 H         1 BLM1        0.0000
     10 O2          1.6480    2.0940    1.3210 O.3       1 BLM1        0.0000
     11 HO2         1.9050    3.0200    1.2240 H         1 BLM1        0.0000
     12 C3          1.4290    2.2400   -1.0940 C.3       1 BLM1        0.0000
     13 H3          1.8100    1.7570   -2.0270 H         1 BLM1        0.0000
     14 O3          1.9160    3.5840   -1.0780 O.3       1 BLM1        0.0000
     15 HO3         1.9290    3.9260   -1.9800 H         1 BLM1        0.0000
     16 C4         -0.0880    2.1780   -1.1220 C.3       1 BLM1        0.0000
     17 H4         -0.4870    2.6750   -0.2050 H         1 BLM1        0.0000
     18 O4         -0.6140    2.8510   -2.2630 O.3       1 BLM1        0.0000
     19 HO4        -0.8450    3.7560   -2.0260 H         1 BLM1        0.0000
     20 C6         -2.0660    0.5890   -1.0130 C.3       1 BLM1        0.0000
     21 H61        -2.5450    1.0750   -1.8920 H         1 BLM1        0.0000
     22 H62        -2.4400    1.0910   -0.0920 H         1 BLM1        0.0000
     23 O6         -2.4600   -0.7830   -0.9900 O.3       1 BLM1        0.0000
     24 HO6        -2.0050   -1.2170   -0.2560 H         1 BLM1        0.0000
@<TRIPOS>BOND
     1   18   19 1 
     2   18   16 1 
     3    6    5 1 
     4   13   12 1 
     5   15   14 1 
     6   21   20 1 
     7   16    5 1 
     8   16   12 1 
     9   16   17 1 
    10    5   20 1 
    11    5    7 1 
    12   12   14 1 
    13   12    8 1 
    14   20   23 1 
    15   20   22 1 
    16   23   24 1 
    17    2    1 1 
    18    1    7 1 
    19    1    8 1 
    20    1    3 1 
    21    9    8 1 
    22    8   10 1 
    23    3    4 1 
    24   11   10 1 
