@<TRIPOS>MOLECULE
C:\Users\Praveer\PycharmProjects\pdb_to_mol2_converter\data\pdb\blmana.pdb
   30    30     0     0     0
SMALL
GASTEIGER

@<TRIPOS>ATOM
      1 C1          1.4450    0.0860   -0.0530 C.3       1 BLM1        0.0000
      2 H1          1.7720   -0.4750   -0.9590 H         1 BLM1        0.0000
      3 O1          1.9290   -0.5570    1.0890 O.3       1 BLM1        0.0000
      4 HO1         1.5650   -1.4450    1.0940 H         1 BLM1        0.0000
      5 C5         -0.5760    0.7340   -1.1490 C.3       1 BLM1        0.0000
      6 H5         -0.3050    0.1120   -2.0370 H         1 BLM1        0.0000
      7 O5          0.0200    0.1540    0.0310 O.3       1 BLM1        0.0000
      8 C2          1.9560    1.5120   -0.0550 C.3       1 BLM1        0.0000
      9 H2          3.0730    1.4810   -0.0880 H         1 BLM1        0.0000
     10 N           1.5840    2.1790    1.1890 N.am      1 BLM1        0.0000
     11 HN          1.1730    1.5540    1.8460 H         1 BLM1        0.0000
     12 C           1.8200    3.4420    1.5600 C.2       1 BLM1        0.0000
     13 O           2.3420    4.2730    0.8320 O.2       1 BLM1        0.0000
     14 CT          1.3960    3.7960    2.9610 C.3       1 BLM1        0.0000
     15 HT1         2.1560    3.4290    3.6820 H         1 BLM1        0.0000
     16 HT2         0.4130    3.3390    3.1930 H         1 BLM1        0.0000
     17 HT3         1.3170    4.9000    3.0540 H         1 BLM1        0.0000
     18 C3          1.4600    2.1230   -1.3530 C.3       1 BLM1        0.0000
     19 H3          1.7860    1.4570   -2.1910 H         1 BLM1        0.0000
     20 O3          2.0440    3.3870   -1.6380 O.3       1 BLM1        0.0000
     21 HO3         2.1780    3.8730   -0.7980 H         1 BLM1        0.0000
     22 C4         -0.0510    2.1500   -1.3680 C.3       1 BLM1        0.0000
     23 H4         -0.4140    2.8040   -0.5400 H         1 BLM1        0.0000
     24 O4         -0.5430    2.6800   -2.5910 O.3       1 BLM1        0.0000
     25 HO4         0.0610    3.3910   -2.8500 H         1 BLM1        0.0000
     26 C6         -2.0810    0.6870   -0.9880 C.3       1 BLM1        0.0000
     27 H61        -2.5690    1.1560   -1.8730 H         1 BLM1        0.0000
     28 H62        -2.3870    1.2630   -0.0860 H         1 BLM1        0.0000
     29 O6         -2.5530   -0.6560   -0.8760 O.3       1 BLM1        0.0000
     30 HO6        -2.2050   -1.0450   -0.0670 H         1 BLM1        0.0000
@<TRIPOS>BOND
     1   25   24 1 
     2   24   22 1 
     3   19   18 1 
     4    6    5 1 
     5   27   26 1 
     6   20   18 1 
     7   20   21 1 
     8   22   18 1 
     9   22    5 1 
    10   22   23 1 
    11   18    8 1 
    12    5   26 1 
    13    5    7 1 
    14   26   29 1 
    15   26   28 1 
    16    2    1 1 
    17   29   30 1 
    18    9    8 1 
    19    8    1 1 
    20    8   10 1 
    21    1    7 1 
    22    1    3 1 
    23   13   12 2 
    24    3    4 1 
    25   10   12 am
    26   10   11 1 
    27   12   14 1 
    28   14   17 1 
    29   14   16 1 
    30   14   15 1 
