@<TRIPOS>MOLECULE
C:\Users\Praveer\PycharmProjects\pdb_to_mol2_converter\data\pdb\blqui.pdb
   23    23     0     0     0
SMALL
GASTEIGER

@<TRIPOS>ATOM
      1 C1          1.4400   -0.0620    0.0030 C.3       1 BLQ1        0.0000
      2 H1          1.7880   -0.5320   -0.9460 H         1 BLQ1        0.0000
      3 O1          1.9540   -0.8120    1.0660 O.3       1 BLQ1        0.0000
      4 HO1         2.8970   -0.6000    1.0960 H         1 BLQ1        0.0000
      5 C5         -0.5170    0.6230   -1.1490 C.3       1 BLQ1        0.0000
      6 H5         -0.1810    0.0660   -2.0540 H         1 BLQ1        0.0000
      7 O5          0.0130   -0.0090    0.0210 O.3       1 BLQ1        0.0000
      8 C2          1.9460    1.3690    0.0960 C.3       1 BLQ1        0.0000
      9 H2          1.5020    1.8260    1.0140 H         1 BLQ1        0.0000
     10 O2          3.3730    1.4480    0.2170 O.3       1 BLQ1        0.0000
     11 HO2         3.6060    2.3830    0.1520 H         1 BLQ1        0.0000
     12 C3          1.4700    2.1530   -1.1130 C.3       1 BLQ1        0.0000
     13 H3          1.9160    1.6710   -2.0180 H         1 BLQ1        0.0000
     14 O3          1.9180    3.5040   -1.0770 O.3       1 BLQ1        0.0000
     15 HO3         1.8620    3.8700   -1.9700 H         1 BLQ1        0.0000
     16 C4         -0.0390    2.0680   -1.2350 C.3       1 BLQ1        0.0000
     17 H4         -0.4860    2.6160   -0.3690 H         1 BLQ1        0.0000
     18 O4         -0.4910    2.6670   -2.4450 O.3       1 BLQ1        0.0000
     19 HO4        -0.9930    3.4680   -2.2500 H         1 BLQ1        0.0000
     20 C6         -2.0470    0.5030   -1.0420 C.3       1 BLQ1        0.0000
     21 H61        -2.3440   -0.5630   -0.9420 H         1 BLQ1        0.0000
     22 H62        -2.5380    0.9250   -1.9440 H         1 BLQ1        0.0000
     23 H63        -2.4080    1.0490   -0.1450 H         1 BLQ1        0.0000
@<TRIPOS>BOND
     1   18   19 1 
     2   18   16 1 
     3    6    5 1 
     4   13   12 1 
     5   15   14 1 
     6   22   20 1 
     7   16    5 1 
     8   16   12 1 
     9   16   17 1 
    10    5   20 1 
    11    5    7 1 
    12   12   14 1 
    13   12    8 1 
    14   20   21 1 
    15   20   23 1 
    16    2    1 1 
    17    1    7 1 
    18    1    8 1 
    19    1    3 1 
    20    8   10 1 
    21    8    9 1 
    22   11   10 1 
    23    3    4 1 
