@<TRIPOS>MOLECULE
C:\Users\Praveer\PycharmProjects\pdb_to_mol2_converter\data\pdb\blribp.pdb
   20    20     0     0     0
SMALL
GASTEIGER

@<TRIPOS>ATOM
      1 C1          1.4690    0.0320    0.0020 C.3       1 BLR1        0.0000
      2 H1          1.8420   -0.5320   -0.8850 H         1 BLR1        0.0000
      3 O1          1.9380   -0.6170    1.1470 O.3       1 BLR1        0.0000
      4 HO1         1.4590   -0.2300    1.8830 H         1 BLR1        0.0000
      5 C5         -0.4650    0.5200   -1.2510 C.3       1 BLR1        0.0000
      6 H51        -1.5780    0.4640   -1.2410 H         1 BLR1        0.0000
      7 H52        -0.1020   -0.1300   -2.0800 H         1 BLR1        0.0000
      8 O5          0.0430    0.0440    0.0020 O.3       1 BLR1        0.0000
      9 C2          1.9750    1.4680   -0.0570 C.3       1 BLR1        0.0000
     10 H2          1.5220    2.0450    0.7850 H         1 BLR1        0.0000
     11 O2          3.4020    1.5540    0.0870 O.3       1 BLR1        0.0000
     12 HO2         3.7430    0.6690    0.2270 H         1 BLR1        0.0000
     13 C3          1.4960    2.0700   -1.3640 C.3       1 BLR1        0.0000
     14 H3          1.7590    3.1550   -1.3780 H         1 BLR1        0.0000
     15 O3          2.1390    1.4610   -2.4880 O.3       1 BLR1        0.0000
     16 HO3         3.0740    1.6900   -2.4570 H         1 BLR1        0.0000
     17 C4         -0.0180    1.9550   -1.4600 C.3       1 BLR1        0.0000
     18 H4         -0.4770    2.5740   -0.6520 H         1 BLR1        0.0000
     19 O4         -0.5010    2.4330   -2.7040 O.3       1 BLR1        0.0000
     20 HO4         0.1250    2.1250   -3.3730 H         1 BLR1        0.0000
@<TRIPOS>BOND
     1   20   19 1 
     2   19   17 1 
     3   15   16 1 
     4   15   13 1 
     5    7    5 1 
     6   17   13 1 
     7   17    5 1 
     8   17   18 1 
     9   14   13 1 
    10   13    9 1 
    11    5    6 1 
    12    5    8 1 
    13    2    1 1 
    14    9    1 1 
    15    9   11 1 
    16    9   10 1 
    17    1    8 1 
    18    1    3 1 
    19   11   12 1 
    20    3    4 1 
