@<TRIPOS>MOLECULE
C:\Users\Praveer\PycharmProjects\pdb_to_mol2_converter\data\pdb\blrib.pdb
   20    20     0     0     0
SMALL
GASTEIGER

@<TRIPOS>ATOM
      1 O4          1.4170    0.0180    0.0030 O.3       1 BLR1        0.0000
      2 C1          1.8870    1.3600    0.0810 C.3       1 BLR1        0.0000
      3 H1          1.9080    1.7770   -0.9510 H         1 BLR1        0.0000
      4 O1          3.1680    1.3210    0.6180 O.3       1 BLR1        0.0000
      5 HO1         3.2260    0.4810    1.0720 H         1 BLR1        0.0000
      6 C4         -0.0090    0.0700   -0.0170 C.3       1 BLR1        0.0000
      7 H4         -0.3050    0.3720   -1.0480 H         1 BLR1        0.0000
      8 C5         -0.5650   -1.2920    0.3070 C.3       1 BLR1        0.0000
      9 H51        -0.1050   -1.6720    1.2490 H         1 BLR1        0.0000
     10 H52        -0.3140   -2.0050   -0.5110 H         1 BLR1        0.0000
     11 O5         -1.9860   -1.2300    0.4750 O.3       1 BLR1        0.0000
     12 HO5        -2.3390   -2.1030    0.6780 H         1 BLR1        0.0000
     13 C2          0.8700    2.1030    0.9830 C.3       1 BLR1        0.0000
     14 H2          1.2640    2.1920    2.0190 H         1 BLR1        0.0000
     15 O2          0.5760    3.4040    0.5180 O.3       1 BLR1        0.0000
     16 HO2        -0.3870    3.4450    0.4280 H         1 BLR1        0.0000
     17 C3         -0.3640    1.1500    1.0000 C.3       1 BLR1        0.0000
     18 H3         -0.4610    0.7050    2.0140 H         1 BLR1        0.0000
     19 O3         -1.5930    1.7470    0.6420 O.3       1 BLR1        0.0000
     20 HO3        -2.2420    1.0330    0.5630 H         1 BLR1        0.0000
@<TRIPOS>BOND
     1    7    6 1 
     2    3    2 1 
     3   10    8 1 
     4    6    1 1 
     5    6    8 1 
     6    6   17 1 
     7    1    2 1 
     8    2    4 1 
     9    2   13 1 
    10    8   11 1 
    11    8    9 1 
    12   16   15 1 
    13   11   12 1 
    14   15   13 1 
    15   20   19 1 
    16    4    5 1 
    17   19   17 1 
    18   13   17 1 
    19   13   14 1 
    20   17   18 1 
