@<TRIPOS>MOLECULE
C:\Users\Praveer\PycharmProjects\pdb_to_mol2_converter\data\pdb\blrulf.pdb
   20    20     0     0     0
SMALL
GASTEIGER

@<TRIPOS>ATOM
      1 O5          1.3590    0.0570    0.3420 O.3       1 BLR1        0.0000
      2 C2          1.9030    1.3700    0.1750 C.3       1 BLR1        0.0000
      3 O2          2.3470    1.8900    1.3980 O.3       1 BLR1        0.0000
      4 HO2         3.2530    2.1850    1.2280 H         1 BLR1        0.0000
      5 C5          0.0390    0.0480   -0.2100 C.3       1 BLR1        0.0000
      6 H51        -0.5610   -0.7140    0.3070 H         1 BLR1        0.0000
      7 H52         0.1160   -0.2450   -1.2670 H         1 BLR1        0.0000
      8 C1          3.1360    1.1640   -0.6970 C.3       1 BLR1        0.0000
      9 H11         2.8580    0.5730   -1.6000 H         1 BLR1        0.0000
     10 H12         3.8890    0.5660   -0.1370 H         1 BLR1        0.0000
     11 O1          3.7520    2.3930   -1.1130 O.3       1 BLR1        0.0000
     12 HO1         3.1510    2.8300   -1.7360 H         1 BLR1        0.0000
     13 C3          0.7870    2.2660   -0.4490 C.3       1 BLR1        0.0000
     14 H3          0.7820    3.2890   -0.0230 H         1 BLR1        0.0000
     15 O3          0.8470    2.3510   -1.8640 O.3       1 BLR1        0.0000
     16 HO3        -0.0680    2.2470   -2.1760 H         1 BLR1        0.0000
     17 C4         -0.4570    1.4680   -0.0100 C.3       1 BLR1        0.0000
     18 H4         -0.6910    1.6470    1.0630 H         1 BLR1        0.0000
     19 O4         -1.6070    1.6490   -0.8090 O.3       1 BLR1        0.0000
     20 HO4        -2.2590    2.1900   -0.3410 H         1 BLR1        0.0000
@<TRIPOS>BOND
     1   16   15 1 
     2   15   13 1 
     3   12   11 1 
     4    9    8 1 
     5    7    5 1 
     6   11    8 1 
     7   19   20 1 
     8   19   17 1 
     9    8   10 1 
    10    8    2 1 
    11   13   14 1 
    12   13   17 1 
    13   13    2 1 
    14    5   17 1 
    15    5    6 1 
    16    5    1 1 
    17   17   18 1 
    18    2    1 1 
    19    2    3 1 
    20    4    3 1 
