@<TRIPOS>MOLECULE
C:\Users\Praveer\PycharmProjects\pdb_to_mol2_converter\data\pdb\bltana.pdb
   30    30     0     0     0
SMALL
GASTEIGER

@<TRIPOS>ATOM
      1 C1          1.4690    0.1110   -0.0310 C.3       1 BLT1        0.0000
      2 H1          1.7400   -0.4150   -0.9760 H         1 BLT1        0.0000
      3 O1          2.0140   -0.5890    1.0480 O.3       1 BLT1        0.0000
      4 HO1         1.6520   -1.4780    1.0290 H         1 BLT1        0.0000
      5 C5         -0.5950    0.8240   -0.9890 C.3       1 BLT1        0.0000
      6 H5         -0.3440    0.2460   -1.9110 H         1 BLT1        0.0000
      7 O5          0.0500    0.1750    0.1260 O.3       1 BLT1        0.0000
      8 C2          2.0140    1.5280   -0.0240 C.3       1 BLT1        0.0000
      9 H2          3.1220    1.4650   -0.1660 H         1 BLT1        0.0000
     10 N           1.7980    2.1760    1.2660 N.am      1 BLT1        0.0000
     11 HN          1.2680    1.6280    1.9030 H         1 BLT1        0.0000
     12 C           2.2470    3.3760    1.6500 C.2       1 BLT1        0.0000
     13 O           2.9170    4.1040    0.9300 O.2       1 BLT1        0.0000
     14 CT          1.8860    3.8010    3.0490 C.3       1 BLT1        0.0000
     15 HT1         2.6340    3.3980    3.7620 H         1 BLT1        0.0000
     16 HT2         0.8740    3.4310    3.3110 H         1 BLT1        0.0000
     17 HT3         1.8930    4.9100    3.1030 H         1 BLT1        0.0000
     18 C3          1.4260    2.2100   -1.2540 C.3       1 BLT1        0.0000
     19 H3          1.6870    1.5750   -2.1350 H         1 BLT1        0.0000
     20 O3          2.0300    3.4610   -1.5340 O.3       1 BLT1        0.0000
     21 HO3         2.1830    3.9170   -0.6850 H         1 BLT1        0.0000
     22 C4         -0.0930    2.2580   -1.2020 C.3       1 BLT1        0.0000
     23 H4         -0.4700    2.6290   -2.1840 H         1 BLT1        0.0000
     24 O4         -0.5980    3.1410   -0.2070 O.3       1 BLT1        0.0000
     25 HO4        -1.4110    2.7470    0.1510 H         1 BLT1        0.0000
     26 C6         -2.0970    0.7090   -0.7940 C.3       1 BLT1        0.0000
     27 H61        -2.3960   -0.3640   -0.8210 H         1 BLT1        0.0000
     28 H62        -2.6270    1.2290   -1.6250 H         1 BLT1        0.0000
     29 O6         -2.5310    1.2690    0.4480 O.3       1 BLT1        0.0000
     30 HO6        -2.1690    0.7410    1.1720 H         1 BLT1        0.0000
@<TRIPOS>BOND
     1   23   22 1 
     2   19   18 1 
     3    6    5 1 
     4   28   26 1 
     5   20   18 1 
     6   20   21 1 
     7   18   22 1 
     8   18    8 1 
     9   22    5 1 
    10   22   24 1 
    11    5   26 1 
    12    5    7 1 
    13    2    1 1 
    14   27   26 1 
    15   26   29 1 
    16   24   25 1 
    17    9    8 1 
    18    1    8 1 
    19    1    7 1 
    20    1    3 1 
    21    8   10 1 
    22   29   30 1 
    23   13   12 2 
    24    4    3 1 
    25   10   12 am
    26   10   11 1 
    27   12   14 1 
    28   14   17 1 
    29   14   16 1 
    30   14   15 1 
