@<TRIPOS>MOLECULE
C:\Users\Praveer\PycharmProjects\pdb_to_mol2_converter\data\pdb\bltal.pdb
   24    24     0     0     0
SMALL
GASTEIGER

@<TRIPOS>ATOM
      1 C1          1.4260    0.0740   -0.0130 C.3       1 BLT1        0.0000
      2 H1          1.7570   -0.4140   -0.9580 H         1 BLT1        0.0000
      3 O1          1.9730   -0.6430    1.0520 O.3       1 BLT1        0.0000
      4 HO1         1.6920   -0.1590    1.8340 H         1 BLT1        0.0000
      5 C5         -0.6060    0.6940   -1.0650 C.3       1 BLT1        0.0000
      6 H5         -0.2550    0.1960   -2.0010 H         1 BLT1        0.0000
      7 O5          0.0010    0.0490    0.0700 O.3       1 BLT1        0.0000
      8 C2          1.9170    1.5210    0.0350 C.3       1 BLT1        0.0000
      9 H2          3.0260    1.4990   -0.0990 H         1 BLT1        0.0000
     10 O2          1.6540    2.1750    1.2890 O.3       1 BLT1        0.0000
     11 HO2         2.2970    2.8860    1.4070 H         1 BLT1        0.0000
     12 C3          1.3160    2.2740   -1.1440 C.3       1 BLT1        0.0000
     13 H3          1.6860    1.7920   -2.0810 H         1 BLT1        0.0000
     14 O3          1.7400    3.6330   -1.1850 O.3       1 BLT1        0.0000
     15 HO3         1.0910    4.1450   -0.6840 H         1 BLT1        0.0000
     16 C4         -0.1970    2.1620   -1.1260 C.3       1 BLT1        0.0000
     17 H4         -0.6040    2.6040   -2.0670 H         1 BLT1        0.0000
     18 O4         -0.7570    2.8900   -0.0390 O.3       1 BLT1        0.0000
     19 HO4        -0.3180    2.5700    0.7660 H         1 BLT1        0.0000
     20 C6         -2.1030    0.5010   -0.9680 C.3       1 BLT1        0.0000
     21 H61        -2.6100    1.0940   -1.7620 H         1 BLT1        0.0000
     22 H62        -2.4780    0.8600    0.0170 H         1 BLT1        0.0000
     23 O6         -2.4530   -0.8720   -1.1370 O.3       1 BLT1        0.0000
     24 HO6        -2.0860   -1.3770   -0.4020 H         1 BLT1        0.0000
@<TRIPOS>BOND
     1   13   12 1 
     2   17   16 1 
     3    6    5 1 
     4   21   20 1 
     5   14   12 1 
     6   14   15 1 
     7   12   16 1 
     8   12    8 1 
     9   23   20 1 
    10   23   24 1 
    11   16    5 1 
    12   16   18 1 
    13    5   20 1 
    14    5    7 1 
    15   20   22 1 
    16    2    1 1 
    17    9    8 1 
    18   18   19 1 
    19    1    8 1 
    20    1    7 1 
    21    1    3 1 
    22    8   10 1 
    23    3    4 1 
    24   10   11 1 
