@<TRIPOS>MOLECULE
C:\Users\Praveer\PycharmProjects\pdb_to_mol2_converter\data\pdb\bltagp.pdb
   24    24     0     0     0
SMALL
GASTEIGER

@<TRIPOS>ATOM
      1 C2          1.4160   -0.0040   -0.0930 C.3       1 BLT1        0.0000
      2 O2          1.6020   -0.7030    1.1110 O.3       1 BLT1        0.0000
      3 HO2         1.4020   -1.6170    0.8780 H         1 BLT1        0.0000
      4 C6         -0.4450    1.0730   -1.2130 C.3       1 BLT1        0.0000
      5 H61        -1.5420    1.2300   -1.0920 H         1 BLT1        0.0000
      6 H62        -0.3100    0.6020   -2.2110 H         1 BLT1        0.0000
      7 O6         -0.0070    0.1830   -0.1690 O.3       1 BLT1        0.0000
      8 C3          2.1220    1.3610    0.0270 C.3       1 BLT1        0.0000
      9 H3          3.2210    1.1710   -0.0220 H         1 BLT1        0.0000
     10 O3          1.8810    2.0390    1.2710 O.3       1 BLT1        0.0000
     11 HO3         1.7080    1.3460    1.9280 H         1 BLT1        0.0000
     12 C4          1.7400    2.2520   -1.1370 C.3       1 BLT1        0.0000
     13 H4          2.0590    1.7710   -2.0910 H         1 BLT1        0.0000
     14 O4          2.4090    3.5090   -1.0680 O.3       1 BLT1        0.0000
     15 HO4         2.4230    3.7580   -0.1320 H         1 BLT1        0.0000
     16 C5          0.2370    2.4250   -1.1730 C.3       1 BLT1        0.0000
     17 H5         -0.0930    2.9560   -0.2470 H         1 BLT1        0.0000
     18 O5         -0.1710    3.1920   -2.2970 O.3       1 BLT1        0.0000
     19 HO5         0.4210    3.9530   -2.3600 H         1 BLT1        0.0000
     20 C1          1.8860   -0.8760   -1.2730 C.3       1 BLT1        0.0000
     21 H1A         2.9910   -0.7460   -1.3430 H         1 BLT1        0.0000
     22 H1B         1.4720   -0.5300   -2.2410 H         1 BLT1        0.0000
     23 O1          1.6730   -2.2940   -1.1280 O.3       1 BLT1        0.0000
     24 HO1         0.7780   -2.5380   -1.4040 H         1 BLT1        0.0000
@<TRIPOS>BOND
     1   19   18 1 
     2   18   16 1 
     3   22   20 1 
     4    6    4 1 
     5   13   12 1 
     6   24   23 1 
     7   21   20 1 
     8   20   23 1 
     9   20    1 1 
    10    4   16 1 
    11    4    5 1 
    12    4    7 1 
    13   16   12 1 
    14   16   17 1 
    15   12   14 1 
    16   12    8 1 
    17   14   15 1 
    18    7    1 1 
    19    1    8 1 
    20    1    2 1 
    21    9    8 1 
    22    8   10 1 
    23    3    2 1 
    24   10   11 1 
