@<TRIPOS>MOLECULE
C:\Users\Praveer\PycharmProjects\pdb_to_mol2_converter\data\pdb\blxyl.pdb
   20    20     0     0     0
SMALL
GASTEIGER

@<TRIPOS>ATOM
      1 C1          1.4500    0.0150   -0.0300 C.3       1 BLX1        0.0000
      2 H1          1.7670   -0.4810   -0.9770 H         1 BLX1        0.0000
      3 O1          1.9710   -0.6950    1.0590 O.3       1 BLX1        0.0000
      4 HO1         1.5580   -1.5620    1.0430 H         1 BLX1        0.0000
      5 C5         -0.5820    0.6970   -1.0430 C.3       1 BLX1        0.0000
      6 H51        -1.6890    0.6460   -0.9340 H         1 BLX1        0.0000
      7 H52        -0.3160    0.1760   -1.9910 H         1 BLX1        0.0000
      8 O5          0.0270    0.0350    0.0740 O.3       1 BLX1        0.0000
      9 C2          1.9550    1.4520    0.0090 C.3       1 BLX1        0.0000
     10 H2          1.5990    1.9110    0.9640 H         1 BLX1        0.0000
     11 O2          3.3870    1.5330   -0.0020 O.3       1 BLX1        0.0000
     12 HO2         3.7120    0.9970    0.7340 H         1 BLX1        0.0000
     13 C3          1.3600    2.2370   -1.1420 C.3       1 BLX1        0.0000
     14 H3          1.7150    1.7770   -2.0970 H         1 BLX1        0.0000
     15 O3          1.7980    3.5940   -1.1310 O.3       1 BLX1        0.0000
     16 HO3         2.7470    3.5750   -0.9480 H         1 BLX1        0.0000
     17 C4         -0.1490    2.1460   -1.1000 C.3       1 BLX1        0.0000
     18 H4         -0.5170    2.6620   -0.1800 H         1 BLX1        0.0000
     19 O4         -0.7390    2.7730   -2.2280 O.3       1 BLX1        0.0000
     20 HO4        -0.3360    3.6480   -2.3030 H         1 BLX1        0.0000
@<TRIPOS>BOND
     1   20   19 1 
     2   19   17 1 
     3   14   13 1 
     4    7    5 1 
     5   13   15 1 
     6   13   17 1 
     7   13    9 1 
     8   15   16 1 
     9   17    5 1 
    10   17   18 1 
    11    5    6 1 
    12    5    8 1 
    13    2    1 1 
    14    1    9 1 
    15    1    8 1 
    16    1    3 1 
    17   11    9 1 
    18   11   12 1 
    19    9   10 1 
    20    4    3 1 
