@<TRIPOS>MOLECULE
C:\Users\Praveer\PycharmProjects\pdb_to_mol2_converter\data\pdb\blyf.pdb
   20    20     0     0     0
SMALL
GASTEIGER

@<TRIPOS>ATOM
      1 O4          1.2550    0.1290    0.4110 O.3       1 BLY1        0.0000
      2 C1          1.8340    1.3310   -0.1070 C.3       1 BLY1        0.0000
      3 H1          2.4250    1.8030    0.7080 H         1 BLY1        0.0000
      4 O1          2.6770    1.0390   -1.1870 O.3       1 BLY1        0.0000
      5 HO1         3.0710    1.8690   -1.4700 H         1 BLY1        0.0000
      6 C4         -0.1500    0.0860    0.0940 C.3       1 BLY1        0.0000
      7 H4         -0.6830    0.4080    1.0180 H         1 BLY1        0.0000
      8 C5         -0.5480   -1.3300   -0.2390 C.3       1 BLY1        0.0000
      9 H51        -0.1200   -2.0150    0.5300 H         1 BLY1        0.0000
     10 H52        -0.1470   -1.6390   -1.2300 H         1 BLY1        0.0000
     11 O5         -1.9710   -1.4590   -0.2180 O.3       1 BLY1        0.0000
     12 HO5        -2.2350   -2.3410   -0.4990 H         1 BLY1        0.0000
     13 C2          0.6290    2.2180   -0.5120 C.3       1 BLY1        0.0000
     14 H2          0.2180    2.7040    0.4000 H         1 BLY1        0.0000
     15 O2          0.8940    3.2180   -1.4770 O.3       1 BLY1        0.0000
     16 HO2         0.6450    2.8540   -2.3380 H         1 BLY1        0.0000
     17 C3         -0.3420    1.1380   -0.9990 C.3       1 BLY1        0.0000
     18 H3         -1.3910    1.5030   -1.0300 H         1 BLY1        0.0000
     19 O3          0.0020    0.6560   -2.2790 O.3       1 BLY1        0.0000
     20 HO3         0.9230    0.3530   -2.2250 H         1 BLY1        0.0000
@<TRIPOS>BOND
     1   16   15 1 
     2   19   20 1 
     3   19   17 1 
     4   15   13 1 
     5    5    4 1 
     6   10    8 1 
     7    4    2 1 
     8   18   17 1 
     9   17   13 1 
    10   17    6 1 
    11   13    2 1 
    12   13   14 1 
    13   12   11 1 
    14    8   11 1 
    15    8    6 1 
    16    8    9 1 
    17    2    1 1 
    18    2    3 1 
    19    6    1 1 
    20    6    7 1 
