@<TRIPOS>MOLECULE
C:\Users\Praveer\PycharmProjects\pdb_to_mol2_converter\data\pdb\blyxp.pdb
   20    20     0     0     0
SMALL
GASTEIGER

@<TRIPOS>ATOM
      1 C1          1.4270    0.0280    0.0020 C.3       1 BLY1        0.0000
      2 H1          1.7290   -0.4800    0.9480 H         1 BLY1        0.0000
      3 O1          1.8970   -0.7340   -1.0730 O.3       1 BLY1        0.0000
      4 HO1         1.3980   -0.4320   -1.8370 H         1 BLY1        0.0000
      5 C5         -0.5620    0.8440    1.0000 C.3       1 BLY1        0.0000
      6 H51        -0.3470    0.3290    1.9620 H         1 BLY1        0.0000
      7 H52        -1.6680    0.8620    0.8750 H         1 BLY1        0.0000
      8 O5          0.0070    0.0890   -0.0810 O.3       1 BLY1        0.0000
      9 C2          2.0240    1.4300   -0.0430 C.3       1 BLY1        0.0000
     10 H2          1.7090    1.9070   -1.0030 H         1 BLY1        0.0000
     11 O2          3.4580    1.4130   -0.0170 O.3       1 BLY1        0.0000
     12 HO2         3.7620    0.7370   -0.6370 H         1 BLY1        0.0000
     13 C3          1.4730    2.2570    1.1040 C.3       1 BLY1        0.0000
     14 H3          1.7850    1.7730    2.0610 H         1 BLY1        0.0000
     15 O3          2.0130    3.5780    1.1000 O.3       1 BLY1        0.0000
     16 HO3         2.9580    3.4870    0.9170 H         1 BLY1        0.0000
     17 C4         -0.0410    2.2720    1.0530 C.3       1 BLY1        0.0000
     18 H4         -0.4300    2.7650    1.9750 H         1 BLY1        0.0000
     19 O4         -0.5150    3.0130   -0.0620 O.3       1 BLY1        0.0000
     20 HO4        -0.0280    3.8470   -0.0700 H         1 BLY1        0.0000
@<TRIPOS>BOND
     1    4    3 1 
     2    3    1 1 
     3   10    9 1 
     4   12   11 1 
     5    8    1 1 
     6    8    5 1 
     7   20   19 1 
     8   19   17 1 
     9    9   11 1 
    10    9    1 1 
    11    9   13 1 
    12    1    2 1 
    13    7    5 1 
    14   16   15 1 
    15    5   17 1 
    16    5    6 1 
    17   17   13 1 
    18   17   18 1 
    19   15   13 1 
    20   13   14 1 
