@<TRIPOS>MOLECULE
C:\Users\Praveer\PycharmProjects\pdb_to_mol2_converter\data\pdb\bm2g.pdb
   25    26     0     0     0
SMALL
GASTEIGER

@<TRIPOS>ATOM
      1 N9          1.3680    0.0010    0.0020 N.ar      1 BM21        0.0000
      2 C8          1.7490    1.3270    0.0320 C.ar      1 BM21        0.0000
      3 H8          2.7980    1.6230    0.0540 H         1 BM21        0.0000
      4 N7          0.7300    2.1740    0.0330 N.ar      1 BM21        0.0000
      5 C5         -0.3960    1.3610    0.0010 C.ar      1 BM21        0.0000
      6 C6         -1.7750    1.6850   -0.0140 C.ar      1 BM21        0.0000
      7 O6         -2.3380    2.7790   -0.0120 O.2       1 BM21        0.0000
      8 N1         -2.5790    0.5640   -0.0350 N.ar      1 BM21        0.0000
      9 H1         -3.5610    0.7460   -0.0520 H         1 BM21        0.0000
     10 C4         -0.0120    0.0050   -0.0150 C.ar      1 BM21        0.0000
     11 C2         -2.1710   -0.7580   -0.0280 C.ar      1 BM21        0.0000
     12 N2         -3.1390   -1.7320   -0.0970 N.pl3     1 BM21        0.0000
     13 N3         -0.8450   -1.0500   -0.0470 N.ar      1 BM21        0.0000
     14 CM1        -2.7520   -3.1180   -0.3540 C.3       1 BM21        0.0000
     15 H11        -2.1990   -3.5490    0.5120 H         1 BM21        0.0000
     16 H12        -2.0990   -3.2010   -1.2530 H         1 BM21        0.0000
     17 H13        -3.6430   -3.7580   -0.5390 H         1 BM21        0.0000
     18 CM2        -4.4530   -1.5110    0.5070 C.3       1 BM21        0.0000
     19 H21        -5.1090   -0.9120   -0.1650 H         1 BM21        0.0000
     20 H22        -4.3800   -0.9900    1.4880 H         1 BM21        0.0000
     21 H23        -4.9730   -2.4780    0.6940 H         1 BM21        0.0000
     22 CM          2.2340   -1.1870   -0.0090 C.3       1 BM21        0.0000
     23 HM1         3.3130   -0.9190   -0.0060 H         1 BM21        0.0000
     24 HM2         2.0320   -1.7990   -0.9150 H         1 BM21        0.0000
     25 HM3         2.0300   -1.8190    0.8830 H         1 BM21        0.0000
@<TRIPOS>BOND
     1   16   14 1 
     2   24   22 1 
     3   17   14 1 
     4   14   12 1 
     5   14   15 1 
     6   19   18 1 
     7   12   11 1 
     8   12   18 1 
     9    9    8 1 
    10   13   11 ar
    11   13   10 ar
    12    8   11 ar
    13    8    6 ar
    14   10    5 ar
    15   10    1 ar
    16    6    7 2 
    17    6    5 ar
    18   22   23 1 
    19   22    1 1 
    20   22   25 1 
    21    5    4 ar
    22    1    2 ar
    23    2    4 ar
    24    2    3 1 
    25   18   21 1 
    26   18   20 1 
