@<TRIPOS>MOLECULE
C:\Users\Praveer\PycharmProjects\pdb_to_mol2_converter\data\pdb\bm6a.pdb
   24    25     0     0     0
SMALL
GASTEIGER

@<TRIPOS>ATOM
      1 N9          1.3860    0.0050    0.0020 N.ar      1 BM61        0.0000
      2 C8          1.7670    1.3300   -0.0100 C.ar      1 BM61        0.0000
      3 H8          2.8190    1.6220   -0.0110 H         1 BM61        0.0000
      4 N7          0.7510    2.1790   -0.0200 N.ar      1 BM61        0.0000
      5 C5         -0.3840    1.3540   -0.0130 C.ar      1 BM61        0.0000
      6 C6         -1.7800    1.6170   -0.0210 C.3       1 BM61        0.0000
      7 N6         -2.3810    2.8670   -0.0520 N.3       1 BM61        0.0000
      8 N1         -2.6240    0.5220   -0.0450 N.2       1 BM61        0.0000
      9 C2         -2.1330   -0.7410   -0.0260 C.2       1 BM61        0.0000
     10 H2         -2.8520   -1.5630   -0.0370 H         1 BM61        0.0000
     11 N3         -0.8170   -1.0580   -0.0010 N.pl3     1 BM61        0.0000
     12 C4          0.0030    0.0040   -0.0020 C.ar      1 BM61        0.0000
     13 C9         -1.6490    4.0750    0.3160 C.3       1 BM61        0.0000
     14 H91        -0.9340    4.3710   -0.4860 H         1 BM61        0.0000
     15 H92        -1.0700    3.9360    1.2570 H         1 BM61        0.0000
     16 H93        -2.3380    4.9340    0.4810 H         1 BM61        0.0000
     17 C10        -3.8140    2.9960   -0.3130 C.3       1 BM61        0.0000
     18 H101       -4.4140    2.5810    0.5280 H         1 BM61        0.0000
     19 H102       -4.1090    2.4590   -1.2430 H         1 BM61        0.0000
     20 H103       -4.1090    4.0600   -0.4440 H         1 BM61        0.0000
     21 CM          2.2580   -1.1780    0.0130 C.3       1 BM61        0.0000
     22 HM1         3.3370   -0.9110    0.0170 H         1 BM61        0.0000
     23 HM2         2.0580   -1.8080   -0.8820 H         1 BM61        0.0000
     24 HM3         2.0490   -1.7990    0.9130 H         1 BM61        0.0000
@<TRIPOS>BOND
     1   19   17 1 
     2   23   21 1 
     3   14   13 1 
     4   20   17 1 
     5   17    7 1 
     6   17   18 1 
     7    7    6 1 
     8    7   13 1 
     9    8    9 2 
    10    8    6 1 
    11   10    9 1 
    12    9   11 1 
    13    6    5 1 
    14    4    5 ar
    15    4    2 ar
    16    5   12 ar
    17    3    2 1 
    18    2    1 ar
    19   12   11 1 
    20   12    1 ar
    21    1   21 1 
    22   21   22 1 
    23   21   24 1 
    24   13   16 1 
    25   13   15 1 
