@<TRIPOS>MOLECULE
C:\Users\Praveer\PycharmProjects\pdb_to_mol2_converter\data\pdb\bmana.pdb
   22    22     0     0     0
SMALL
GASTEIGER

@<TRIPOS>ATOM
      1 C1          1.4770   -0.0080   -0.0240 C.3       1 BMA1        0.0000
      2 H1          1.8720   -0.5340    0.8730 H         1 BMA1        0.0000
      3 O1          1.9210   -0.6910   -1.1560 O.3       1 BMA1        0.0000
      4 HO1         1.3590   -1.4720   -1.2000 H         1 BMA1        0.0000
      5 C5         -0.5030    0.5330    1.1620 C.3       1 BMA1        0.0000
      6 H5         -0.2610   -0.1860    1.9760 H         1 BMA1        0.0000
      7 O5          0.0590    0.0120   -0.0680 O.3       1 BMA1        0.0000
      8 C2          1.9120    1.4490   -0.0350 C.3       1 BMA1        0.0000
      9 H2          3.0210    1.4810   -0.1260 H         1 BMA1        0.0000
     10 O2          1.3800    2.2240   -1.1210 O.3       1 BMA1        0.0000
     11 HO2         0.5270    1.8320   -1.3590 H         1 BMA1        0.0000
     12 C3          1.5270    2.0520    1.3000 C.3       1 BMA1        0.0000
     13 H3          2.0420    1.4850    2.1100 H         1 BMA1        0.0000
     14 O3          1.9900    3.3980    1.3760 O.3       1 BMA1        0.0000
     15 HO3         1.7620    3.8100    0.5290 H         1 BMA1        0.0000
     16 C4          0.0220    1.9280    1.5170 C.3       1 BMA1        0.0000
     17 H4         -0.4640    2.6560    0.8200 H         1 BMA1        0.0000
     18 O4         -0.3770    2.2460    2.8490 O.3       1 BMA1        0.0000
     19 HO4        -1.3040    1.9140    2.9050 H         1 BMA1        0.0000
     20 C6         -2.0370    0.6680    1.0860 C.2       1 BMA1        0.0000
     21 O61        -2.5700    0.8770    2.2170 O.co2     1 BMA1        0.0000
     22 O62        -2.5710    0.6330   -0.0580 O.co2     1 BMA1        0.0000
@<TRIPOS>BOND
     1   11   10 1 
     2    4    3 1 
     3    3    1 1 
     4   10    8 1 
     5    9    8 1 
     6    7    1 1 
     7    7    5 1 
     8   22   20 ar
     9    8    1 1 
    10    8   12 1 
    11    1    2 1 
    12   15   14 1 
    13   17   16 1 
    14   20    5 1 
    15   20   21 ar
    16    5   16 1 
    17    5    6 1 
    18   12   14 1 
    19   12   16 1 
    20   12   13 1 
    21   16   18 1 
    22   18   19 1 
