@<TRIPOS>MOLECULE
C:\Users\Praveer\PycharmProjects\pdb_to_mol2_converter\data\pdb\bmann.pdb
   25    25     0     0     0
SMALL
GASTEIGER

@<TRIPOS>ATOM
      1 C1          1.3690    0.0010   -0.0120 C.3       1 BMA1        0.0000
      2 H1          1.7380   -0.5740    0.8680 H         1 BMA1        0.0000
      3 O1          1.8120   -0.6340   -1.1760 O.3       1 BMA1        0.0000
      4 HO1         1.4140   -1.5060   -1.1920 H         1 BMA1        0.0000
      5 C5         -0.5510    0.5940    1.2450 C.3       1 BMA1        0.0000
      6 H5         -0.1770   -0.0340    2.0900 H         1 BMA1        0.0000
      7 O5         -0.0550    0.0670   -0.0010 O.3       1 BMA1        0.0000
      8 C2          1.9140    1.4270    0.0260 C.3       1 BMA1        0.0000
      9 H2          3.0300    1.3500    0.0530 H         1 BMA1        0.0000
     10 N2          1.5980    2.2690   -1.1270 N.3       1 BMA1        0.0000
     11 HN21        0.7850    1.9530   -1.6220 H         1 BMA1        0.0000
     12 HN22        2.3690    2.4580   -1.7340 H         1 BMA1        0.0000
     13 C3          1.4670    2.0610    1.3190 C.3       1 BMA1        0.0000
     14 H3          1.9020    1.4920    2.1760 H         1 BMA1        0.0000
     15 O3          1.9600    3.3920    1.3870 O.3       1 BMA1        0.0000
     16 HO3         1.9280    3.7160    0.4740 H         1 BMA1        0.0000
     17 C4         -0.0430    2.0190    1.4290 C.3       1 BMA1        0.0000
     18 H4         -0.4820    2.6500    0.6190 H         1 BMA1        0.0000
     19 O4         -0.4750    2.5440    2.6770 O.3       1 BMA1        0.0000
     20 HO4         0.0160    3.3630    2.8280 H         1 BMA1        0.0000
     21 C6         -2.0620    0.5010    1.2310 C.3       1 BMA1        0.0000
     22 H61        -2.4740    1.1250    0.4060 H         1 BMA1        0.0000
     23 H62        -2.4740    0.8890    2.1910 H         1 BMA1        0.0000
     24 O6         -2.5000   -0.8480    1.0650 O.3       1 BMA1        0.0000
     25 HO6        -2.2060   -1.1630    0.2040 H         1 BMA1        0.0000
@<TRIPOS>BOND
     1   12   10 1 
     2   11   10 1 
     3    4    3 1 
     4    3    1 1 
     5   10    8 1 
     6    1    7 1 
     7    1    8 1 
     8    1    2 1 
     9    7    5 1 
    10    8    9 1 
    11    8   13 1 
    12   25   24 1 
    13   22   21 1 
    14   16   15 1 
    15   18   17 1 
    16   24   21 1 
    17   21    5 1 
    18   21   23 1 
    19    5   17 1 
    20    5    6 1 
    21   13   15 1 
    22   13   17 1 
    23   13   14 1 
    24   17   19 1 
    25   19   20 1 
