@<TRIPOS>MOLECULE
C:\Users\Praveer\PycharmProjects\pdb_to_mol2_converter\data\pdb\bmanna.pdb
   30    30     0     0     0
SMALL
GASTEIGER

@<TRIPOS>ATOM
      1 C1          1.3960    0.0720    0.0200 C.3       1 BMA1        0.0000
      2 H1          1.7860   -0.5290    0.8740 H         1 BMA1        0.0000
      3 O1          1.8400   -0.4890   -1.1790 O.3       1 BMA1        0.0000
      4 HO1         1.5290   -1.3980   -1.2040 H         1 BMA1        0.0000
      5 C5         -0.5710    0.5780    1.2660 C.3       1 BMA1        0.0000
      6 H5         -0.2230   -0.0940    2.0870 H         1 BMA1        0.0000
      7 O5         -0.0300    0.1040    0.0150 O.3       1 BMA1        0.0000
      8 C2          1.8620    1.5120    0.0830 C.3       1 BMA1        0.0000
      9 H2          2.9790    1.5220    0.0450 H         1 BMA1        0.0000
     10 N           1.3900    2.2370   -1.0960 N.am      1 BMA1        0.0000
     11 HN          1.0170    1.6250   -1.7880 H         1 BMA1        0.0000
     12 C           1.4670    3.5450   -1.3680 C.2       1 BMA1        0.0000
     13 O           1.9270    4.3750   -0.5970 O.2       1 BMA1        0.0000
     14 CT          0.9380    3.9620   -2.7140 C.3       1 BMA1        0.0000
     15 HT1        -0.0420    3.4810   -2.9060 H         1 BMA1        0.0000
     16 HT2         1.6600    3.6660   -3.5030 H         1 BMA1        0.0000
     17 HT3         0.8140    5.0660   -2.7320 H         1 BMA1        0.0000
     18 C3          1.4300    2.0180    1.4490 C.3       1 BMA1        0.0000
     19 H3          1.8250    1.3050    2.2170 H         1 BMA1        0.0000
     20 O3          1.9960    3.2760    1.7910 O.3       1 BMA1        0.0000
     21 HO3         2.0030    3.8460    0.9950 H         1 BMA1        0.0000
     22 C4         -0.0790    1.9930    1.5580 C.3       1 BMA1        0.0000
     23 H4         -0.5140    2.6900    0.8050 H         1 BMA1        0.0000
     24 O4         -0.5080    2.4180    2.8430 O.3       1 BMA1        0.0000
     25 HO4         0.0810    3.1380    3.1120 H         1 BMA1        0.0000
     26 C6         -2.0780    0.4790    1.1940 C.3       1 BMA1        0.0000
     27 H61        -2.4620    1.1430    0.3870 H         1 BMA1        0.0000
     28 H62        -2.5270    0.8140    2.1580 H         1 BMA1        0.0000
     29 O6         -2.4980   -0.8620    0.9350 O.3       1 BMA1        0.0000
     30 HO6        -2.1810   -1.1240    0.0640 H         1 BMA1        0.0000
@<TRIPOS>BOND
     1   16   14 1 
     2   15   14 1 
     3   17   14 1 
     4   14   12 1 
     5   11   10 1 
     6   12   10 am
     7   12   13 2 
     8    4    3 1 
     9    3    1 1 
    10   10    8 1 
    11    7    1 1 
    12    7    5 1 
    13    1    8 1 
    14    1    2 1 
    15    9    8 1 
    16   30   29 1 
    17    8   18 1 
    18   27   26 1 
    19   23   22 1 
    20   29   26 1 
    21   21   20 1 
    22   26    5 1 
    23   26   28 1 
    24    5   22 1 
    25    5    6 1 
    26   18   22 1 
    27   18   20 1 
    28   18   19 1 
    29   22   24 1 
    30   24   25 1 
