@<TRIPOS>MOLECULE
C:\Users\Praveer\PycharmProjects\pdb_to_mol2_converter\data\pdb\bman.pdb
   24    24     0     0     0
SMALL
GASTEIGER

@<TRIPOS>ATOM
      1 C1          1.3750   -0.0230   -0.0140 C.3       1 BMA1        0.0000
      2 H1          1.7500   -0.6080    0.8570 H         1 BMA1        0.0000
      3 O1          1.7820   -0.6540   -1.1960 O.3       1 BMA1        0.0000
      4 HO1         1.3930   -1.5330   -1.1950 H         1 BMA1        0.0000
      5 C5         -0.5430    0.5990    1.2370 C.3       1 BMA1        0.0000
      6 H5         -0.1770   -0.0150    2.0940 H         1 BMA1        0.0000
      7 O5         -0.0490    0.0400    0.0040 O.3       1 BMA1        0.0000
      8 C2          1.9360    1.3960    0.0190 C.3       1 BMA1        0.0000
      9 H2          3.0510    1.3240    0.0330 H         1 BMA1        0.0000
     10 O2          1.5730    2.1840   -1.1230 O.3       1 BMA1        0.0000
     11 HO2         1.5340    1.5790   -1.8770 H         1 BMA1        0.0000
     12 C3          1.4830    2.0610    1.3010 C.3       1 BMA1        0.0000
     13 H3          1.8990    1.4860    2.1640 H         1 BMA1        0.0000
     14 O3          1.9860    3.3910    1.4010 O.3       1 BMA1        0.0000
     15 HO3         1.9580    3.7620    0.5080 H         1 BMA1        0.0000
     16 C4         -0.0290    2.0260    1.4000 C.3       1 BMA1        0.0000
     17 H4         -0.4570    2.6450    0.5750 H         1 BMA1        0.0000
     18 O4         -0.4690    2.5730    2.6360 O.3       1 BMA1        0.0000
     19 HO4         0.0480    3.3740    2.7930 H         1 BMA1        0.0000
     20 C6         -2.0550    0.5160    1.2170 C.3       1 BMA1        0.0000
     21 H61        -2.4580    1.1210    0.3730 H         1 BMA1        0.0000
     22 H62        -2.4690    0.9330    2.1630 H         1 BMA1        0.0000
     23 O6         -2.5000   -0.8340    1.0850 O.3       1 BMA1        0.0000
     24 HO6        -2.2040   -1.1740    0.2340 H         1 BMA1        0.0000
@<TRIPOS>BOND
     1   11   10 1 
     2    3    4 1 
     3    3    1 1 
     4   10    8 1 
     5    1    7 1 
     6    1    8 1 
     7    1    2 1 
     8    7    5 1 
     9    8    9 1 
    10    8   12 1 
    11   24   23 1 
    12   21   20 1 
    13   15   14 1 
    14   17   16 1 
    15   23   20 1 
    16   20    5 1 
    17   20   22 1 
    18    5   16 1 
    19    5    6 1 
    20   12   16 1 
    21   12   14 1 
    22   12   13 1 
    23   16   18 1 
    24   18   19 1 
