@<TRIPOS>MOLECULE
C:\Users\Praveer\PycharmProjects\pdb_to_mol2_converter\data\pdb\bmdu.pdb
   20    20     0     0     0
SMALL
GASTEIGER

@<TRIPOS>ATOM
      1 N1          1.4660    0.0080    0.0080 N.am      1 BMD1        0.0000
      2 C2          2.1410    1.2050    0.0180 C.2       1 BMD1        0.0000
      3 O2          3.3380    1.3440   -0.2010 O.2       1 BMD1        0.0000
      4 N3          1.3800    2.2940    0.3140 N.am      1 BMD1        0.0000
      5 H3          1.8070    3.1750    0.1740 H         1 BMD1        0.0000
      6 C4          0.1170    2.3080    0.7190 C.2       1 BMD1        0.0000
      7 O4         -0.4840    3.3680    0.8340 O.2       1 BMD1        0.0000
      8 C5         -0.5510    1.0050    1.0220 C.3       1 BMD1        0.0000
      9 H5         -1.6430    1.1330    0.8610 H         1 BMD1        0.0000
     10 C6          0.0100    0.0070   -0.0010 C.3       1 BMD1        0.0000
     11 H61        -0.3550   -1.0110    0.2620 H         1 BMD1        0.0000
     12 H62        -0.3520    0.2340   -1.0290 H         1 BMD1        0.0000
     13 C5M        -0.3030    0.5830    2.4950 C.3       1 BMD1        0.0000
     14 H51        -0.7130    1.3440    3.1950 H         1 BMD1        0.0000
     15 H52         0.7820    0.4630    2.7030 H         1 BMD1        0.0000
     16 H53        -0.8050   -0.3850    2.7070 H         1 BMD1        0.0000
     17 CM          2.1590   -1.2110   -0.3660 C.3       1 BMD1        0.0000
     18 HM1         3.2550   -1.0870   -0.2120 H         1 BMD1        0.0000
     19 HM2         1.9330   -1.4120   -1.4350 H         1 BMD1        0.0000
     20 HM3         1.7770   -2.0270    0.2840 H         1 BMD1        0.0000
@<TRIPOS>BOND
     1   19   17 1 
     2   12   10 1 
     3   17   18 1 
     4   17    1 1 
     5   17   20 1 
     6    3    2 2 
     7   10    1 1 
     8   10   11 1 
     9   10    8 1 
    10    1    2 am
    11    2    4 am
    12    5    4 1 
    13    4    6 am
    14    6    7 2 
    15    6    8 1 
    16    9    8 1 
    17    8   13 1 
    18   13   15 1 
    19   13   16 1 
    20   13   14 1 
