@<TRIPOS>MOLECULE
C:\Users\Praveer\PycharmProjects\pdb_to_mol2_converter\data\pdb\bmia.pdb
   35    36     0     0     0
SMALL
GASTEIGER

@<TRIPOS>ATOM
      1 N9          1.3700    0.0160    0.0110 N.ar      1 BMI1        0.0000
      2 C8          1.7590    1.3440    0.0160 C.ar      1 BMI1        0.0000
      3 H8          2.8130    1.6290    0.0010 H         1 BMI1        0.0000
      4 N7          0.7470    2.2040    0.0410 N.ar      1 BMI1        0.0000
      5 C5         -0.3800    1.3770    0.0530 C.ar      1 BMI1        0.0000
      6 C6         -1.7520    1.6720    0.0760 C.3       1 BMI1        0.0000
      7 N6         -2.1720    2.9830    0.0710 N.3       1 BMI1        0.0000
      8 H6         -1.4130    3.6640    0.0810 H         1 BMI1        0.0000
      9 N1         -2.6320    0.6180    0.0920 N.2       1 BMI1        0.0000
     10 C2         -2.1620   -0.6630    0.0740 C.2       1 BMI1        0.0000
     11 N3         -0.8540   -1.0180    0.0450 N.pl3     1 BMI1        0.0000
     12 C4         -0.0130    0.0250    0.0380 C.ar      1 BMI1        0.0000
     13 C12        -3.5710    3.4680    0.2240 C.3       1 BMI1        0.0000
     14 H101       -4.2830    2.6180    0.1900 H         1 BMI1        0.0000
     15 H102       -3.8140    4.1180   -0.6480 H         1 BMI1        0.0000
     16 S10        -3.2800   -2.0110    0.0810 S.3       1 BMI1        0.0000
     17 C11        -4.8540   -1.0800    0.0660 C.3       1 BMI1        0.0000
     18 H11        -4.9380   -0.4280   -0.8310 H         1 BMI1        0.0000
     19 H12        -4.9660   -0.4460    0.9730 H         1 BMI1        0.0000
     20 H13        -5.7160   -1.7800    0.0450 H         1 BMI1        0.0000
     21 C13        -3.6680    4.2650    1.5030 C.2       1 BMI1        0.0000
     22 H130       -2.8600    4.9980    1.6360 H         1 BMI1        0.0000
     23 C14        -4.6210    4.2170    2.4570 C.2       1 BMI1        0.0000
     24 C15        -4.5120    5.1130    3.6630 C.3       1 BMI1        0.0000
     25 H151       -3.5980    5.7470    3.6650 H         1 BMI1        0.0000
     26 H152       -4.4970    4.5090    4.5960 H         1 BMI1        0.0000
     27 H153       -5.3890    5.7930    3.7220 H         1 BMI1        0.0000
     28 C16        -5.8330    3.3250    2.4020 C.3       1 BMI1        0.0000
     29 H161       -5.9000    2.7020    1.4870 H         1 BMI1        0.0000
     30 H162       -6.7600    3.9360    2.4520 H         1 BMI1        0.0000
     31 H163       -5.8450    2.6360    3.2730 H         1 BMI1        0.0000
     32 CM          2.2360   -1.1740   -0.0180 C.3       1 BMI1        0.0000
     33 HM1         3.3160   -0.9100   -0.0320 H         1 BMI1        0.0000
     34 HM2         2.0160   -1.7840   -0.9220 H         1 BMI1        0.0000
     35 HM3         2.0450   -1.8110    0.8740 H         1 BMI1        0.0000
@<TRIPOS>BOND
     1   34   32 1 
     2   18   17 1 
     3   15   13 1 
     4   33   32 1 
     5   32    1 1 
     6   32   35 1 
     7    3    2 1 
     8    1    2 ar
     9    1   12 ar
    10    2    4 ar
    11   12   11 1 
    12   12    5 ar
    13    4    5 ar
    14   11   10 1 
    15   20   17 1 
    16    5    6 1 
    17   17   16 1 
    18   17   19 1 
    19    7    6 1 
    20    7    8 1 
    21    7   13 1 
    22   10   16 1 
    23   10    9 2 
    24    6    9 1 
    25   14   13 1 
    26   13   21 1 
    27   29   28 1 
    28   21   22 1 
    29   21   23 2 
    30   28   30 1 
    31   28   23 1 
    32   28   31 1 
    33   23   24 1 
    34   24   25 1 
    35   24   27 1 
    36   24   26 1 
