@<TRIPOS>MOLECULE
C:\Users\Praveer\PycharmProjects\pdb_to_mol2_converter\data\pdb\bmou.pdb
   19    19     0     0     0
SMALL
GASTEIGER

@<TRIPOS>ATOM
      1 N1          1.3740    0.0050    0.0010 N.ar      1 BMO1        0.0000
      2 C2          2.0830    1.2210    0.0000 C.ar      1 BMO1        0.0000
      3 O2          3.3100    1.2820    0.0000 O.2       1 BMO1        0.0000
      4 N3          1.3270    2.3610   -0.0000 N.ar      1 BMO1        0.0000
      5 H3          1.8220    3.2320   -0.0010 H         1 BMO1        0.0000
      6 C4         -0.0540    2.4260   -0.0000 C.ar      1 BMO1        0.0000
      7 O4         -0.5620    3.5480   -0.0010 O.2       1 BMO1        0.0000
      8 C5         -0.7720    1.1540    0.0010 C.ar      1 BMO1        0.0000
      9 C6          0.0000    0.0050    0.0010 C.ar      1 BMO1        0.0000
     10 H6         -0.4460   -0.9870    0.0010 H         1 BMO1        0.0000
     11 O7         -2.1520    1.1070    0.0010 O.3       1 BMO1        0.0000
     12 C8         -2.7340   -0.1960    0.0050 C.3       1 BMO1        0.0000
     13 H81        -2.4520   -0.7620    0.9210 H         1 BMO1        0.0000
     14 H82        -2.4540   -0.7670   -0.9080 H         1 BMO1        0.0000
     15 H83        -3.8410   -0.0840    0.0060 H         1 BMO1        0.0000
     16 CM          2.1400   -1.2540    0.0010 C.3       1 BMO1        0.0000
     17 HM1         2.8000   -1.3200    0.8980 H         1 BMO1        0.0000
     18 HM2         2.8000   -1.3210   -0.8950 H         1 BMO1        0.0000
     19 HM3         1.4890   -2.1580    0.0020 H         1 BMO1        0.0000
@<TRIPOS>BOND
     1   14   12 1 
     2   18   16 1 
     3    5    4 1 
     4    7    6 2 
     5    2    3 2 
     6    2    4 ar
     7    2    1 ar
     8    4    6 ar
     9    6    8 ar
    10    1    9 ar
    11    1   16 1 
    12    8    9 ar
    13    8   11 1 
    14    9   10 1 
    15   11   12 1 
    16   16   19 1 
    17   16   17 1 
    18   12   15 1 
    19   12   13 1 
