@<TRIPOS>MOLECULE
C:\Users\Praveer\PycharmProjects\pdb_to_mol2_converter\data\pdb\bmpd.pdb
   18    18     0     0     0
SMALL
GASTEIGER

@<TRIPOS>ATOM
      1 CG         -0.0460   -2.4470   -0.0930 C.ar      1 BMP1        0.0000
      2 HG         -0.5950   -3.3740   -0.1270 H         1 BMP1        0.0000
      3 CD1        -0.7320   -1.2250   -0.0580 C.ar      1 BMP1        0.0000
      4 HD1        -1.8100   -1.2060   -0.0590 H         1 BMP1        0.0000
      5 CD2         1.3560   -2.4630   -0.0390 C.ar      1 BMP1        0.0000
      6 HD2         1.8890   -3.4000   -0.0260 H         1 BMP1        0.0000
      7 CE1        -0.0120   -0.0250    0.0030 C.ar      1 BMP1        0.0000
      8 HE1        -0.5060    0.9320    0.0970 H         1 BMP1        0.0000
      9 CE2         2.0630   -1.2560    0.0230 C.ar      1 BMP1        0.0000
     10 HE2         3.1380   -1.2280    0.1360 H         1 BMP1        0.0000
     11 CZ          1.3860   -0.0320    0.0210 C.ar      1 BMP1        0.0000
     12 CH          2.1590    1.2690    0.0720 C.3       1 BMP1        0.0000
     13 HH1         1.5770    2.0550   -0.4240 H         1 BMP1        0.0000
     14 HH2         3.1090    1.1440   -0.4610 H         1 BMP1        0.0000
     15 P1          2.5980    1.9370    1.7530 P.3       1 BMP1        0.0000
     16 O2          3.3190    3.1600    1.3200 O.2       1 BMP1        0.0000
     17 O3          3.4610    0.8790    2.3330 O.3       1 BMP1        0.0000
     18 O4          1.2780    2.1860    2.3840 O.3       1 BMP1        0.0000
@<TRIPOS>BOND
     1   14   12 1 
     2   13   12 1 
     3    2    1 1 
     4    1    3 ar
     5    1    5 ar
     6    4    3 1 
     7    3    7 ar
     8    5    6 1 
     9    5    9 ar
    10    7   11 ar
    11    7    8 1 
    12   11    9 ar
    13   11   12 1 
    14    9   10 1 
    15   12   15 1 
    16   16   15 2 
    17   15   17 1 
    18   15   18 1 
