@<TRIPOS>MOLECULE
C:\Users\Praveer\PycharmProjects\pdb_to_mol2_converter\data\pdb\bmph.pdb
   19    19     0     0     0
SMALL
GASTEIGER

@<TRIPOS>ATOM
      1 CG          1.4230   -0.0820   -0.0540 C.ar      1 BMP1        0.0000
      2 HG          1.9690   -1.0120   -0.0620 H         1 BMP1        0.0000
      3 CD1         2.1140    1.1370   -0.0370 C.ar      1 BMP1        0.0000
      4 HD1         3.1930    1.1470   -0.0290 H         1 BMP1        0.0000
      5 CD2         0.0230   -0.0900   -0.0400 C.ar      1 BMP1        0.0000
      6 HD2        -0.5120   -1.0270   -0.0350 H         1 BMP1        0.0000
      7 CE1         1.4020    2.3430   -0.0170 C.ar      1 BMP1        0.0000
      8 HE1         1.9290    3.2860    0.0280 H         1 BMP1        0.0000
      9 CE2        -0.6830    1.1200   -0.0210 C.ar      1 BMP1        0.0000
     10 HE2        -1.7630    1.1190    0.0220 H         1 BMP1        0.0000
     11 CZ         -0.0010    2.3460   -0.0210 C.ar      1 BMP1        0.0000
     12 CH         -0.7570    3.6420   -0.0040 C.3       1 BMP1        0.0000
     13 HH1        -1.7100    3.5140   -0.5380 H         1 BMP1        0.0000
     14 HH2        -0.1630    4.4230   -0.5000 H         1 BMP1        0.0000
     15 P1         -1.1530    4.2500    1.7010 P.3       1 BMP1        0.0000
     16 O2         -1.9900    5.4930    1.2360 O.3       1 BMP1        0.0000
     17 H2         -2.9090    5.2690    1.4290 H         1 BMP1        0.0000
     18 O3         -2.1830    3.3860    2.3080 O.2       1 BMP1        0.0000
     19 O4          0.0710    4.7280    2.3750 O.3       1 BMP1        0.0000
@<TRIPOS>BOND
     1   13   12 1 
     2   14   12 1 
     3    2    1 1 
     4    1    5 ar
     5    1    3 ar
     6    5    6 1 
     7    5    9 ar
     8    3    4 1 
     9    3    7 ar
    10    9   11 ar
    11    9   10 1 
    12   11    7 ar
    13   11   12 1 
    14    7    8 1 
    15   12   15 1 
    16   16   17 1 
    17   16   15 1 
    18   15   18 2 
    19   15   19 1 
