@<TRIPOS>MOLECULE
C:\Users\Praveer\PycharmProjects\pdb_to_mol2_converter\data\pdb\bmqg.pdb
   60    63     0     0     0
SMALL
GASTEIGER

@<TRIPOS>ATOM
      1 N9          1.3810   -0.0020    0.0070 N.ar      1 BMQ1        0.0000
      2 C8          1.8600    1.2990    0.0080 C.ar      1 BMQ1        0.0000
      3 H8          2.9210    1.5120    0.0350 H         1 BMQ1        0.0000
      4 C7          0.7970    2.1640    0.0140 C.ar      1 BMQ1        0.0000
      5 C5         -0.3980    1.3480   -0.0070 C.ar      1 BMQ1        0.0000
      6 C6         -1.7740    1.6540   -0.0280 C.ar      1 BMQ1        0.0000
      7 O6         -2.3110    2.7620   -0.0680 O.2       1 BMQ1        0.0000
      8 N1         -2.5800    0.5320   -0.0210 N.ar      1 BMQ1        0.0000
      9 H1         -3.5670    0.6910   -0.0220 H         1 BMQ1        0.0000
     10 C2         -2.1380   -0.7720    0.0050 C.ar      1 BMQ1        0.0000
     11 N2         -3.0610   -1.7280    0.0140 N.pl3     1 BMQ1        0.0000
     12 H21        -4.0370   -1.5470    0.0110 H         1 BMQ1        0.0000
     13 H22        -2.7320   -2.6680    0.0270 H         1 BMQ1        0.0000
     14 N3         -0.8310   -1.0570    0.0050 N.ar      1 BMQ1        0.0000
     15 C4         -0.0010    0.0000    0.0050 C.ar      1 BMQ1        0.0000
     16 C10         0.9100    3.6420    0.1840 C.3       1 BMQ1        0.0000
     17 H101        1.8780    4.0300   -0.1780 H         1 BMQ1        0.0000
     18 H102        0.7350    3.9300    1.2360 H         1 BMQ1        0.0000
     19 N11        -0.1470    4.3580   -0.6070 N.4       1 BMQ1        0.0000
     20 H111       -1.0400    4.0540   -0.2250 H         1 BMQ1        0.0000
     21 H112       -0.1430    4.0430   -1.5620 H         1 BMQ1        0.0000
     22 C12        -0.1510    5.8510   -0.6060 C.3       1 BMQ1        0.0000
     23 H12         0.2450    6.2010    0.3430 H         1 BMQ1        0.0000
     24 C15        -0.1150    7.3470   -2.4250 C.2       1 BMQ1        0.0000
     25 H15         0.2230    7.9850   -3.2320 H         1 BMQ1        0.0000
     26 C16         0.6050    6.3550   -1.8000 C.2       1 BMQ1        0.0000
     27 H16         1.6090    6.0520   -2.0650 H         1 BMQ1        0.0000
     28 C14        -1.4230    7.6090   -1.7060 C.3       1 BMQ1        0.0000
     29 H14        -2.2560    7.6460   -2.4290 H         1 BMQ1        0.0000
     30 O14        -1.3950    8.8540   -1.0240 O.3       1 BMQ1        0.0000
     31 H14O       -2.2840    9.0390   -0.6670 H         1 BMQ1        0.0000
     32 C13        -1.5600    6.3720   -0.7920 C.3       1 BMQ1        0.0000
     33 H13        -2.1760    5.6390   -1.3450 H         1 BMQ1        0.0000
     34 O17        -2.1330    6.6920    0.4840 O.3       1 BMQ1        0.0000
     35 C17        -3.2470    5.8810    0.8770 C.3       1 BMQ1        0.0000
     36 H17        -3.5120    5.1410    0.0890 H         1 BMQ1        0.0000
     37 C21        -4.1700    7.7820    2.0140 C.3       1 BMQ1        0.0000
     38 H211       -5.1920    8.0170    2.4000 H         1 BMQ1        0.0000
     39 O22        -4.3970    6.7060    1.0770 O.3       1 BMQ1        0.0000
     40 C18        -2.9610    5.0960    2.1610 C.3       1 BMQ1        0.0000
     41 H18        -3.5230    4.1320    2.1010 H         1 BMQ1        0.0000
     42 O18        -1.5780    4.7580    2.3160 O.3       1 BMQ1        0.0000
     43 H18O       -1.4630    4.6870    3.2790 H         1 BMQ1        0.0000
     44 C19        -3.5020    5.8300    3.3890 C.3       1 BMQ1        0.0000
     45 H19        -4.6020    5.6400    3.4470 H         1 BMQ1        0.0000
     46 O19        -2.9220    5.3570    4.6090 O.3       1 BMQ1        0.0000
     47 H19O       -3.4340    5.7160    5.3460 H         1 BMQ1        0.0000
     48 C20        -3.3130    7.3200    3.1910 C.3       1 BMQ1        0.0000
     49 H20        -2.2370    7.4830    2.9370 H         1 BMQ1        0.0000
     50 O20        -3.6050    8.0970    4.3510 O.3       1 BMQ1        0.0000
     51 H20O       -2.7880    8.3330    4.8030 H         1 BMQ1        0.0000
     52 C23        -3.6390    9.0670    1.3840 C.3       1 BMQ1        0.0000
     53 H231       -2.5270    9.0370    1.3740 H         1 BMQ1        0.0000
     54 H232       -3.9320    9.9390    2.0110 H         1 BMQ1        0.0000
     55 O24        -4.0770    9.2720    0.0370 O.3       1 BMQ1        0.0000
     56 H24O       -5.0410    9.2810    0.0050 H         1 BMQ1        0.0000
     57 CM          2.2110   -1.2120    0.0110 C.3       1 BMQ1        0.0000
     58 HM1         3.2990   -0.9840    0.0160 H         1 BMQ1        0.0000
     59 HM2         1.9890   -1.8300   -0.8870 H         1 BMQ1        0.0000
     60 HM3         1.9820   -1.8280    0.9090 H         1 BMQ1        0.0000
@<TRIPOS>BOND
     1   25   24 1 
     2   29   28 1 
     3   24   26 2 
     4   24   28 1 
     5   27   26 1 
     6   26   22 1 
     7   28   30 1 
     8   28   32 1 
     9   21   19 1 
    10   33   32 1 
    11   30   31 1 
    12   59   57 1 
    13   32   22 1 
    14   32   34 1 
    15   19   22 1 
    16   19   20 1 
    17   19   16 1 
    18   22   23 1 
    19   17   16 1 
    20    7    6 2 
    21    6    8 ar
    22    6    5 ar
    23    9    8 1 
    24    8   10 ar
    25    5   15 ar
    26    5    4 ar
    27   14   15 ar
    28   14   10 ar
    29   56   55 1 
    30   15    1 ar
    31   10   11 1 
    32    1    2 ar
    33    1   57 1 
    34    2    4 ar
    35    2    3 1 
    36   12   11 1 
    37   57   58 1 
    38   57   60 1 
    39    4   16 1 
    40   11   13 1 
    41   55   52 1 
    42   36   35 1 
    43   16   18 1 
    44   34   35 1 
    45   35   39 1 
    46   35   40 1 
    47   39   37 1 
    48   53   52 1 
    49   52   54 1 
    50   52   37 1 
    51   37   38 1 
    52   37   48 1 
    53   41   40 1 
    54   40   42 1 
    55   40   44 1 
    56   42   43 1 
    57   49   48 1 
    58   48   44 1 
    59   48   50 1 
    60   44   45 1 
    61   44   46 1 
    62   50   51 1 
    63   46   47 1 
