@<TRIPOS>MOLECULE
C:\Users\Praveer\PycharmProjects\pdb_to_mol2_converter\data\pdb\bmu2ac.pdb
   38    38     0     0     0
SMALL
GASTEIGER

@<TRIPOS>ATOM
      1 C1          1.4210    0.0550    0.0540 C.3       1 BMU1        0.0000
      2 H1          1.6790   -0.4290    1.0250 H         1 BMU1        0.0000
      3 O1          1.8780   -0.7700   -0.9750 O.3       1 BMU1        0.0000
      4 HO1         1.6910   -0.3210   -1.8040 H         1 BMU1        0.0000
      5 C5         -0.5070    0.9350    1.0900 C.3       1 BMU1        0.0000
      6 H5         -0.1970    0.3990    2.0200 H         1 BMU1        0.0000
      7 O5          0.0150    0.2340   -0.0510 O.3       1 BMU1        0.0000
      8 C2          2.0720    1.4130   -0.0590 C.3       1 BMU1        0.0000
      9 H2          1.7070    1.8680   -1.0170 H         1 BMU1        0.0000
     10 N2          3.5320    1.3730   -0.0710 N.am      1 BMU1        0.0000
     11 HN2         3.9860    0.9770    0.7140 H         1 BMU1        0.0000
     12 C           4.2880    1.9550   -1.0110 C.2       1 BMU1        0.0000
     13 O           3.8340    2.4050   -2.0530 O.2       1 BMU1        0.0000
     14 CT          5.7620    2.0220   -0.7140 C.3       1 BMU1        0.0000
     15 HT11        6.2640    1.1320   -1.1440 H         1 BMU1        0.0000
     16 HT12        5.9450    2.0680    0.3790 H         1 BMU1        0.0000
     17 HT13        6.1710    2.9430   -1.1810 H         1 BMU1        0.0000
     18 C3          1.5670    2.3060    1.0500 C.3       1 BMU1        0.0000
     19 H3          1.9410    1.8930    2.0110 H         1 BMU1        0.0000
     20 O3          2.1090    3.5990    0.7580 O.3       1 BMU1        0.0000
     21 CT3         2.8120    4.3920    1.7350 C.3       1 BMU1        0.0000
     22 HT3         3.6660    4.8600    1.2000 H         1 BMU1        0.0000
     23 CE3         1.9200    5.5970    2.2110 C.2       1 BMU1        0.0000
     24 O31         2.5920    6.5540    2.6770 O.co2     1 BMU1        0.0000
     25 O32         0.7060    5.3220    2.3860 O.co2     1 BMU1        0.0000
     26 CM3         3.3920    3.6460    2.9700 C.3       1 BMU1        0.0000
     27 HM31        4.0470    2.8090    2.6590 H         1 BMU1        0.0000
     28 HM32        2.5670    3.2670    3.6100 H         1 BMU1        0.0000
     29 HM33        3.9870    4.3600    3.5780 H         1 BMU1        0.0000
     30 C4          0.0570    2.3480    1.1200 C.3       1 BMU1        0.0000
     31 H4         -0.3310    2.9120    0.2390 H         1 BMU1        0.0000
     32 O4         -0.3950    2.9910    2.3010 O.3       1 BMU1        0.0000
     33 HO4        -0.0210    3.9190    2.3390 H         1 BMU1        0.0000
     34 C6         -2.0190    0.8980    1.0370 C.3       1 BMU1        0.0000
     35 H61        -2.3790    1.4310    0.1280 H         1 BMU1        0.0000
     36 H62        -2.4380    1.4210    1.9290 H         1 BMU1        0.0000
     37 O6         -2.5020   -0.4460    1.0270 O.3       1 BMU1        0.0000
     38 HO6        -2.0670   -0.9210    0.3090 H         1 BMU1        0.0000
@<TRIPOS>BOND
     1   13   12 2 
     2    4    3 1 
     3   17   14 1 
     4   15   14 1 
     5    9    8 1 
     6   12   14 1 
     7   12   10 am
     8    3    1 1 
     9   14   16 1 
    10   10    8 1 
    11   10   11 1 
    12    8    1 1 
    13    8   18 1 
    14    7    1 1 
    15    7    5 1 
    16    1    2 1 
    17   35   34 1 
    18   31   30 1 
    19   38   37 1 
    20   20   18 1 
    21   20   21 1 
    22   37   34 1 
    23   34    5 1 
    24   34   36 1 
    25   18   30 1 
    26   18   19 1 
    27    5   30 1 
    28    5    6 1 
    29   30   32 1 
    30   22   21 1 
    31   21   23 1 
    32   21   26 1 
    33   23   25 ar
    34   23   24 ar
    35   32   33 1 
    36   27   26 1 
    37   26   29 1 
    38   26   28 1 
