@<TRIPOS>MOLECULE
C:\Users\Praveer\PycharmProjects\pdb_to_mol2_converter\data\pdb\bmu2gc.pdb
   39    39     0     0     0
SMALL
GASTEIGER

@<TRIPOS>ATOM
      1 C1          1.4230    0.0440    0.0620 C.3       1 BMU1        0.0000
      2 H1          1.6790   -0.4600    1.0230 H         1 BMU1        0.0000
      3 O1          1.8800   -0.7680   -0.9790 O.3       1 BMU1        0.0000
      4 HO1         1.7300   -0.2900   -1.7980 H         1 BMU1        0.0000
      5 C5         -0.5090    0.9410    1.0910 C.3       1 BMU1        0.0000
      6 H5         -0.2070    0.4040    2.0230 H         1 BMU1        0.0000
      7 O5          0.0170    0.2330   -0.0470 O.3       1 BMU1        0.0000
      8 C2          2.0840    1.4000   -0.0340 C.3       1 BMU1        0.0000
      9 H2          1.7440    1.8640   -1.0000 H         1 BMU1        0.0000
     10 N2          3.5420    1.3610   -0.0010 N.am      1 BMU1        0.0000
     11 HN2         3.9950    1.1190    0.8520 H         1 BMU1        0.0000
     12 C           4.3420    1.8080   -0.9840 C.2       1 BMU1        0.0000
     13 O           3.9190    2.0690   -2.1060 O.2       1 BMU1        0.0000
     14 C10         5.8280    1.9910   -0.5980 C.3       1 BMU1        0.0000
     15 H10         6.1810    2.9340   -1.0640 H         1 BMU1        0.0000
     16 H11         6.3920    1.1470   -1.0450 H         1 BMU1        0.0000
     17 O13         6.0740    2.0370    0.8210 O.3       1 BMU1        0.0000
     18 HO13        5.7390    2.8660    1.1900 H         1 BMU1        0.0000
     19 C3          1.5770    2.2950    1.0700 C.3       1 BMU1        0.0000
     20 H3          1.9410    1.8790    2.0340 H         1 BMU1        0.0000
     21 O3          2.1410    3.5820    0.7770 O.3       1 BMU1        0.0000
     22 CT3         2.8540    4.3700    1.7510 C.3       1 BMU1        0.0000
     23 HT3         3.7090    4.8470    1.2190 H         1 BMU1        0.0000
     24 CE3         1.9590    5.5670    2.2310 C.2       1 BMU1        0.0000
     25 O31         2.6240    6.4800    2.7760 O.co2     1 BMU1        0.0000
     26 O32         0.7250    5.3230    2.3100 O.co2     1 BMU1        0.0000
     27 CM3         3.4300    3.6320    2.9900 C.3       1 BMU1        0.0000
     28 HM31        4.0940    2.8020    2.6880 H         1 BMU1        0.0000
     29 HM32        2.6040    3.2460    3.6260 H         1 BMU1        0.0000
     30 HM33        4.0150    4.3480    3.6070 H         1 BMU1        0.0000
     31 C4          0.0700    2.3490    1.1220 C.3       1 BMU1        0.0000
     32 H4         -0.2950    2.9130    0.2320 H         1 BMU1        0.0000
     33 O4         -0.3880    3.0100    2.2940 O.3       1 BMU1        0.0000
     34 HO4        -0.0070    3.9320    2.3180 H         1 BMU1        0.0000
     35 C6         -2.0220    0.9180    1.0200 C.3       1 BMU1        0.0000
     36 H61        -2.3690    1.4580    0.1100 H         1 BMU1        0.0000
     37 H62        -2.4480    1.4340    1.9130 H         1 BMU1        0.0000
     38 O6         -2.5180   -0.4220    0.9910 O.3       1 BMU1        0.0000
     39 HO6        -2.0960   -0.8900    0.2600 H         1 BMU1        0.0000
@<TRIPOS>BOND
     1   13   12 2 
     2    4    3 1 
     3   15   14 1 
     4   16   14 1 
     5    9    8 1 
     6   12   14 1 
     7   12   10 am
     8    3    1 1 
     9   14   17 1 
    10    7    1 1 
    11    7    5 1 
    12    8   10 1 
    13    8    1 1 
    14    8   19 1 
    15   10   11 1 
    16    1    2 1 
    17   36   35 1 
    18   32   31 1 
    19   39   38 1 
    20   21   19 1 
    21   21   22 1 
    22   17   18 1 
    23   38   35 1 
    24   35    5 1 
    25   35   37 1 
    26   19   31 1 
    27   19   20 1 
    28    5   31 1 
    29    5    6 1 
    30   31   33 1 
    31   23   22 1 
    32   22   24 1 
    33   22   27 1 
    34   24   26 ar
    35   24   25 ar
    36   33   34 1 
    37   28   27 1 
    38   27   30 1 
    39   27   29 1 
