@<TRIPOS>MOLECULE
C:\Users\Praveer\PycharmProjects\pdb_to_mol2_converter\data\pdb\bmur.pdb
   33    33     0     0     0
SMALL
GASTEIGER

@<TRIPOS>ATOM
      1 C1          1.3880   -0.0600    0.0630 C.3       1 BMU1        0.0000
      2 H1          1.6400   -0.5570    1.0290 H         1 BMU1        0.0000
      3 O1          1.7480   -0.9220   -0.9780 O.3       1 BMU1        0.0000
      4 HO1         1.4570   -0.5060   -1.7910 H         1 BMU1        0.0000
      5 C5         -0.4820    0.9100    1.1160 C.3       1 BMU1        0.0000
      6 H5         -0.2020    0.3550    2.0440 H         1 BMU1        0.0000
      7 O5         -0.0090    0.1900   -0.0310 O.3       1 BMU1        0.0000
      8 C2          2.1320    1.2600   -0.0500 C.3       1 BMU1        0.0000
      9 H2          1.8450    1.7200   -1.0280 H         1 BMU1        0.0000
     10 N2          3.5850    1.1150   -0.0860 N.3       1 BMU1        0.0000
     11 HN21        3.9570    0.3420   -0.5990 H         1 BMU1        0.0000
     12 HN22        4.1130    1.9600    0.0380 H         1 BMU1        0.0000
     13 C3          1.6720    2.2160    1.0370 C.3       1 BMU1        0.0000
     14 H3          2.0840    1.8250    1.9930 H         1 BMU1        0.0000
     15 O3          2.2200    3.4990    0.6780 O.3       1 BMU1        0.0000
     16 CT3         2.8370    4.3910    1.6350 C.3       1 BMU1        0.0000
     17 HT3         3.6890    4.8810    1.1140 H         1 BMU1        0.0000
     18 CE3         1.8910    5.5840    2.0320 C.2       1 BMU1        0.0000
     19 O31         2.5030    6.5270    2.5850 O.co2     1 BMU1        0.0000
     20 O32         0.6580    5.3340    2.0190 O.co2     1 BMU1        0.0000
     21 CM3         3.4170    3.7380    2.9200 C.3       1 BMU1        0.0000
     22 HM31        4.1560    2.9560    2.6600 H         1 BMU1        0.0000
     23 HM32        2.6010    3.2930    3.5270 H         1 BMU1        0.0000
     24 HM33        3.9180    4.5140    3.5400 H         1 BMU1        0.0000
     25 C4          0.1610    2.2890    1.1520 C.3       1 BMU1        0.0000
     26 H4         -0.2230    2.8730    0.2810 H         1 BMU1        0.0000
     27 O4         -0.2420    2.9480    2.3430 O.3       1 BMU1        0.0000
     28 HO4         0.0520    3.8990    2.2850 H         1 BMU1        0.0000
     29 C6         -1.9950    0.9540    1.0450 C.3       1 BMU1        0.0000
     30 H61        -2.3160    1.4960    0.1260 H         1 BMU1        0.0000
     31 H62        -2.4000    1.4980    1.9290 H         1 BMU1        0.0000
     32 O6         -2.5560   -0.3590    1.0390 O.3       1 BMU1        0.0000
     33 HO6        -2.1630   -0.8530    0.3100 H         1 BMU1        0.0000
@<TRIPOS>BOND
     1    4    3 1 
     2    9    8 1 
     3    3    1 1 
     4   11   10 1 
     5   10    8 1 
     6   10   12 1 
     7    8    1 1 
     8    8   13 1 
     9    7    1 1 
    10    7    5 1 
    11    1    2 1 
    12   30   29 1 
    13   26   25 1 
    14   33   32 1 
    15   15   13 1 
    16   15   16 1 
    17   13   25 1 
    18   13   14 1 
    19   32   29 1 
    20   29    5 1 
    21   29   31 1 
    22   17   16 1 
    23    5   25 1 
    24    5    6 1 
    25   25   27 1 
    26   16   18 1 
    27   16   21 1 
    28   20   18 ar
    29   18   19 ar
    30   28   27 1 
    31   22   21 1 
    32   21   23 1 
    33   21   24 1 
