@<TRIPOS>MOLECULE
C:\Users\Praveer\PycharmProjects\pdb_to_mol2_converter\data\pdb\bmwg.pdb
   30    32     0     0     0
SMALL
GASTEIGER

@<TRIPOS>ATOM
      1 N9          1.3920    0.0080   -0.0080 N.ar      1 BMW1        0.0000
      2 C8          1.7610    1.3340   -0.0090 C.ar      1 BMW1        0.0000
      3 H8          2.8070    1.6430   -0.0230 H         1 BMW1        0.0000
      4 N7          0.7340    2.1630    0.0110 N.ar      1 BMW1        0.0000
      5 C5         -0.3950    1.3480    0.0320 C.ar      1 BMW1        0.0000
      6 C6         -1.7690    1.6940    0.1170 C.ar      1 BMW1        0.0000
      7 O6         -2.1950    2.8580    0.0810 O.2       1 BMW1        0.0000
      8 N1         -2.6200    0.5650    0.3350 N.ar      1 BMW1        0.0000
      9 C2         -2.1970   -0.7770    0.3300 C.ar      1 BMW1        0.0000
     10 N2         -3.2090   -1.6130    0.6350 N.ar      1 BMW1        0.0000
     11 N3         -0.8810   -1.0790   -0.0090 N.ar      1 BMW1        0.0000
     12 C4          0.0000    0.0040    0.0050 C.ar      1 BMW1        0.0000
     13 C12        -3.9620    0.5380    0.6760 C.ar      1 BMW1        0.0000
     14 C11        -4.2950   -0.7840    0.8480 C.ar      1 BMW1        0.0000
     15 C3         -0.6200   -2.3850   -0.6400 C.3       1 BMW1        0.0000
     16 H31        -1.5570   -2.8970   -0.9620 H         1 BMW1        0.0000
     17 H32        -0.1030   -3.0730    0.0680 H         1 BMW1        0.0000
     18 H33         0.0160   -2.2840   -1.5480 H         1 BMW1        0.0000
     19 C10        -5.5810   -1.4410    1.2170 C.3       1 BMW1        0.0000
     20 H101       -5.4460   -2.0110    2.1590 H         1 BMW1        0.0000
     21 H102       -5.8810   -2.1420    0.4110 H         1 BMW1        0.0000
     22 H103       -6.3800   -0.6860    1.3590 H         1 BMW1        0.0000
     23 C13        -4.8520    1.7560    0.8230 C.3       1 BMW1        0.0000
     24 H131       -4.8870    2.3190   -0.1360 H         1 BMW1        0.0000
     25 H132       -4.4470    2.4310    1.6080 H         1 BMW1        0.0000
     26 H133       -5.8890    1.4720    1.1030 H         1 BMW1        0.0000
     27 CM          2.2950   -1.1540   -0.0220 C.3       1 BMW1        0.0000
     28 HM1         3.3590   -0.8500    0.0920 H         1 BMW1        0.0000
     29 HM2         2.2060   -1.7150   -0.9770 H         1 BMW1        0.0000
     30 HM3         2.0500   -1.8450    0.8150 H         1 BMW1        0.0000
@<TRIPOS>BOND
     1   18   15 1 
     2   29   27 1 
     3   16   15 1 
     4   15   11 1 
     5   15   17 1 
     6   24   23 1 
     7    3    2 1 
     8   27    1 1 
     9   27   28 1 
    10   27   30 1 
    11    2    1 ar
    12    2    4 ar
    13   11   12 ar
    14   11    9 ar
    15    1   12 ar
    16   12    5 ar
    17    4    5 ar
    18    5    6 ar
    19    7    6 2 
    20    6    8 ar
    21    9    8 ar
    22    9   10 ar
    23    8   13 ar
    24   21   19 1 
    25   10   14 ar
    26   13   23 1 
    27   13   14 ar
    28   23   26 1 
    29   23   25 1 
    30   14   19 1 
    31   19   22 1 
    32   19   20 1 
