@<TRIPOS>MOLECULE
C:\Users\Praveer\PycharmProjects\pdb_to_mol2_converter\data\pdb\bn2g.pdb
   29    30     0     0     0
SMALL
GASTEIGER

@<TRIPOS>ATOM
      1 N9          1.3760    0.0000    0.0040 N.pl3     1 BN21        0.0000
      2 C8          1.8150    1.2590   -0.0140 C.3       1 BN21        0.0000
      3 H8          2.8500    1.5390   -0.0240 H         1 BN21        0.0000
      4 N7          0.7800    2.1020   -0.0160 N.3       1 BN21        0.0000
      5 C5         -0.3900    1.3420    0.0040 C.3       1 BN21        0.0000
      6 C6         -1.7570    1.6960    0.0140 C.2       1 BN21        0.0000
      7 O6         -2.2650    2.8160    0.0130 O.2       1 BN21        0.0000
      8 N1         -2.5900    0.5840    0.0310 N.am      1 BN21        0.0000
      9 H1         -3.5770    0.7680    0.0450 H         1 BN21        0.0000
     10 C2         -2.1880   -0.7500    0.0230 C.3       1 BN21        0.0000
     11 N3         -0.8530   -1.0410    0.0380 N.2       1 BN21        0.0000
     12 C4         -0.0070    0.0030    0.0140 C.2       1 BN21        0.0000
     13 C7          0.8550    3.5810   -0.0320 C.3       1 BN21        0.0000
     14 H71         0.3910    3.9610   -0.9700 H         1 BN21        0.0000
     15 H72         1.9100    3.9290    0.0220 H         1 BN21        0.0000
     16 H73         0.2920    3.9870    0.8380 H         1 BN21        0.0000
     17 N2         -3.1540   -1.7270    0.0990 N.3       1 BN21        0.0000
     18 C10        -2.7700   -3.1150    0.3540 C.3       1 BN21        0.0000
     19 H11        -2.1100   -3.2070    1.2460 H         1 BN21        0.0000
     20 H12        -2.2350   -3.5550   -0.5190 H         1 BN21        0.0000
     21 H13        -3.6640   -3.7490    0.5510 H         1 BN21        0.0000
     22 C20        -4.4910   -1.4990   -0.4480 C.3       1 BN21        0.0000
     23 H21        -4.4650   -0.9810   -1.4330 H         1 BN21        0.0000
     24 H22        -5.1200   -0.9020    0.2510 H         1 BN21        0.0000
     25 H23        -5.0220   -2.4650   -0.6130 H         1 BN21        0.0000
     26 CM          2.2190   -1.2130    0.0110 C.3       1 BN21        0.0000
     27 HM1         2.0240   -1.7790    0.9490 H         1 BN21        0.0000
     28 HM2         3.2990   -0.9540   -0.0500 H         1 BN21        0.0000
     29 HM3         1.9410   -1.8470   -0.8600 H         1 BN21        0.0000
@<TRIPOS>BOND
     1   23   22 1 
     2   14   13 1 
     3   29   26 1 
     4   25   22 1 
     5   20   18 1 
     6   22   17 1 
     7   22   24 1 
     8   28   26 1 
     9   13    4 1 
    10   13   15 1 
    11   13   16 1 
    12    3    2 1 
    13    4    2 1 
    14    4    5 1 
    15    2    1 1 
    16    1   26 1 
    17    1   12 1 
    18    5    6 1 
    19    5   12 1 
    20   26   27 1 
    21    7    6 2 
    22    6    8 am
    23   12   11 2 
    24   10    8 1 
    25   10   11 1 
    26   10   17 1 
    27    8    9 1 
    28   17   18 1 
    29   18   21 1 
    30   18   19 1 
