@<TRIPOS>MOLECULE
C:\Users\Praveer\PycharmProjects\pdb_to_mol2_converter\data\pdb\bne5gc.pdb
   40    40     0     0     0
SMALL
GASTEIGER

@<TRIPOS>ATOM
      1 C1          2.0400    1.3840    0.0180 C.2       1 BNE1        0.0000
      2 O11         1.4590    2.1460    0.8390 O.co2     1 BNE1        0.0000
      3 O12         2.8530    1.6960   -0.8990 O.co2     1 BNE1        0.0000
      4 C2          1.5210   -0.0960   -0.0000 C.3       1 BNE1        0.0000
      5 O2          2.1580   -0.8450   -0.9990 O.3       1 BNE1        0.0000
      6 HO2         2.7530   -0.1700   -1.3630 H         1 BNE1        0.0000
      7 C6          1.4550   -1.9990    1.5120 C.3       1 BNE1        0.0000
      8 H6          1.9520   -2.6600    0.7680 H         1 BNE1        0.0000
      9 O6          1.8810   -0.6340    1.2800 O.3       1 BNE1        0.0000
     10 C3          0.0090   -0.1410   -0.1430 C.3       1 BNE1        0.0000
     11 H31        -0.2740    0.2650   -1.1400 H         1 BNE1        0.0000
     12 H32        -0.4260    0.5330    0.6320 H         1 BNE1        0.0000
     13 C4         -0.5330   -1.5120    0.0340 C.3       1 BNE1        0.0000
     14 H4         -0.1840   -2.1550   -0.8100 H         1 BNE1        0.0000
     15 O4         -1.9460   -1.4320   -0.0200 O.3       1 BNE1        0.0000
     16 HO4        -2.2120   -0.6350    0.4460 H         1 BNE1        0.0000
     17 C5         -0.0690   -2.1110    1.3460 C.3       1 BNE1        0.0000
     18 H5         -0.5020   -1.4800    2.1620 H         1 BNE1        0.0000
     19 N          -0.6070   -3.4350    1.5630 N.am      1 BNE1        0.0000
     20 HN         -1.1860   -3.5510    2.3610 H         1 BNE1        0.0000
     21 C          -0.3330   -4.5150    0.8040 C.2       1 BNE1        0.0000
     22 O           0.4220   -4.4850   -0.1560 O.2       1 BNE1        0.0000
     23 C10        -0.9500   -5.8450    1.2910 C.3       1 BNE1        0.0000
     24 H10        -0.2580   -6.6560    0.9810 H         1 BNE1        0.0000
     25 H11        -1.9150   -5.9950    0.7610 H         1 BNE1        0.0000
     26 O13        -1.1580   -5.9070    2.7150 O.3       1 BNE1        0.0000
     27 HO13       -0.4470   -5.4420    3.1880 H         1 BNE1        0.0000
     28 C7          2.0160   -2.3300    2.9090 C.3       1 BNE1        0.0000
     29 H7          1.4630   -1.6970    3.6430 H         1 BNE1        0.0000
     30 O7          3.3850   -1.9010    2.9680 O.3       1 BNE1        0.0000
     31 HO7         3.3810   -1.1340    2.3670 H         1 BNE1        0.0000
     32 C8          1.9470   -3.7980    3.3660 C.3       1 BNE1        0.0000
     33 H8          1.9930   -4.4530    2.4660 H         1 BNE1        0.0000
     34 O8          0.7180   -4.0440    4.0680 O.3       1 BNE1        0.0000
     35 HO8         1.0340   -4.5340    4.8450 H         1 BNE1        0.0000
     36 C9          3.0950   -4.2010    4.2900 C.3       1 BNE1        0.0000
     37 H91         3.1420   -3.4980    5.1540 H         1 BNE1        0.0000
     38 H92         4.0660   -4.1390    3.7480 H         1 BNE1        0.0000
     39 O9          2.9290   -5.5390    4.7860 O.3       1 BNE1        0.0000
     40 HO9         3.6730   -6.0610    4.4630 H         1 BNE1        0.0000
@<TRIPOS>BOND
     1    6    5 1 
     2   11   10 1 
     3    5    4 1 
     4    3    1 ar
     5   14   13 1 
     6   22   21 2 
     7   10    4 1 
     8   10   13 1 
     9   10   12 1 
    10   15   13 1 
    11   15   16 1 
    12    4    1 1 
    13    4    9 1 
    14    1    2 ar
    15   13   17 1 
    16   25   23 1 
    17    8    7 1 
    18   21   23 1 
    19   21   19 am
    20   24   23 1 
    21    9    7 1 
    22   23   26 1 
    23   17    7 1 
    24   17   19 1 
    25   17   18 1 
    26    7   28 1 
    27   19   20 1 
    28   31   30 1 
    29   33   32 1 
    30   26   27 1 
    31   28   30 1 
    32   28   32 1 
    33   28   29 1 
    34   32   34 1 
    35   32   36 1 
    36   38   36 1 
    37   34   35 1 
    38   36   39 1 
    39   36   37 1 
    40   40   39 1 
