@<TRIPOS>MOLECULE
C:\Users\Praveer\PycharmProjects\pdb_to_mol2_converter\data\pdb\bne5ac.pdb
   39    39     0     0     0
SMALL
GASTEIGER

@<TRIPOS>ATOM
      1 C1          2.0150    1.4010   -0.0460 C.2       1 BNE1        0.0000
      2 O11         1.5960    2.1470    0.8800 O.co2     1 BNE1        0.0000
      3 O12         2.7730    1.7030   -1.0140 O.co2     1 BNE1        0.0000
      4 C2          1.5010   -0.0790   -0.0160 C.3       1 BNE1        0.0000
      5 O2          2.0730   -0.8230   -1.0590 O.3       1 BNE1        0.0000
      6 HO2         2.6500   -0.1390   -1.4340 H         1 BNE1        0.0000
      7 C6          1.5150   -1.9910    1.4870 C.3       1 BNE1        0.0000
      8 H6          2.0140   -2.6540    0.7460 H         1 BNE1        0.0000
      9 O6          1.9330   -0.6270    1.2350 O.3       1 BNE1        0.0000
     10 C3         -0.0130   -0.1310   -0.0690 C.3       1 BNE1        0.0000
     11 H31        -0.3530    0.3240   -1.0260 H         1 BNE1        0.0000
     12 H32        -0.4130    0.4990    0.7610 H         1 BNE1        0.0000
     13 C4         -0.5180   -1.5200    0.0670 C.3       1 BNE1        0.0000
     14 H4         -0.1670   -2.1320   -0.8000 H         1 BNE1        0.0000
     15 O4         -1.9350   -1.4750    0.0480 O.3       1 BNE1        0.0000
     16 HO4        -2.2050   -1.1540   -0.8150 H         1 BNE1        0.0000
     17 C5         -0.0120   -2.1500    1.3460 C.3       1 BNE1        0.0000
     18 H5         -0.4470   -1.5510    2.1850 H         1 BNE1        0.0000
     19 N          -0.5290   -3.4940    1.5170 N.am      1 BNE1        0.0000
     20 HN         -1.1630   -3.6050    2.2720 H         1 BNE1        0.0000
     21 C          -0.2370   -4.5530    0.7510 C.2       1 BNE1        0.0000
     22 O           0.5830   -4.5330   -0.1560 O.2       1 BNE1        0.0000
     23 CT         -0.9820   -5.8210    1.0750 C.3       1 BNE1        0.0000
     24 HT1        -2.0230   -5.7410    0.7010 H         1 BNE1        0.0000
     25 HT2        -0.9830   -5.9880    2.1720 H         1 BNE1        0.0000
     26 HT3        -0.4820   -6.6750    0.5720 H         1 BNE1        0.0000
     27 C7          2.1070   -2.2720    2.8770 C.3       1 BNE1        0.0000
     28 H7          1.6300   -1.5580    3.5900 H         1 BNE1        0.0000
     29 O7          3.5040   -1.9410    2.8560 O.3       1 BNE1        0.0000
     30 HO7         3.5120   -1.1660    2.2710 H         1 BNE1        0.0000
     31 C8          1.9450   -3.6920    3.4310 C.3       1 BNE1        0.0000
     32 H8          1.9460   -4.4030    2.5720 H         1 BNE1        0.0000
     33 O8          0.7020   -3.8100    4.1410 O.3       1 BNE1        0.0000
     34 HO8         0.9320   -4.4520    4.8280 H         1 BNE1        0.0000
     35 C9          3.0600   -4.1200    4.3790 C.3       1 BNE1        0.0000
     36 H91         3.1110   -3.4100    5.2360 H         1 BNE1        0.0000
     37 H92         4.0460   -4.1010    3.8620 H         1 BNE1        0.0000
     38 O9          2.8330   -5.4500    4.8760 O.3       1 BNE1        0.0000
     39 HO9         3.4690   -6.0270    4.4410 H         1 BNE1        0.0000
@<TRIPOS>BOND
     1    6    5 1 
     2    5    4 1 
     3   11   10 1 
     4    3    1 ar
     5   16   15 1 
     6   14   13 1 
     7   22   21 2 
     8   10    4 1 
     9   10   13 1 
    10   10   12 1 
    11    1    4 1 
    12    1    2 ar
    13    4    9 1 
    14   15   13 1 
    15   13   17 1 
    16   26   23 1 
    17   24   23 1 
    18    8    7 1 
    19   21   23 1 
    20   21   19 am
    21   23   25 1 
    22    9    7 1 
    23   17    7 1 
    24   17   19 1 
    25   17   18 1 
    26    7   27 1 
    27   19   20 1 
    28   30   29 1 
    29   32   31 1 
    30   29   27 1 
    31   27   31 1 
    32   27   28 1 
    33   31   33 1 
    34   31   35 1 
    35   37   35 1 
    36   33   34 1 
    37   35   38 1 
    38   35   36 1 
    39   39   38 1 
