@<TRIPOS>MOLECULE
C:\Users\Praveer\PycharmProjects\pdb_to_mol2_converter\data\pdb\bneu.pdb
   34    34     0     0     0
SMALL
GASTEIGER

@<TRIPOS>ATOM
      1 C1          1.9950    1.4630   -0.0180 C.2       1 BNE1        0.0000
      2 O11         1.4620    2.2160    0.8410 O.co2     1 BNE1        0.0000
      3 O12         2.8500    1.7600   -0.9000 O.co2     1 BNE1        0.0000
      4 C2          1.5060   -0.0270   -0.0100 C.3       1 BNE1        0.0000
      5 O2          2.1360   -0.7580   -1.0280 O.3       1 BNE1        0.0000
      6 HO2         2.7280   -0.0640   -1.3610 H         1 BNE1        0.0000
      7 C6          1.5400   -1.9360    1.4870 C.3       1 BNE1        0.0000
      8 H6          2.0400   -2.5910    0.7360 H         1 BNE1        0.0000
      9 O6          1.9220   -0.5580    1.2530 O.3       1 BNE1        0.0000
     10 C3         -0.0060   -0.1200   -0.1090 C.3       1 BNE1        0.0000
     11 H31        -0.3310    0.2910   -1.0920 H         1 BNE1        0.0000
     12 H32        -0.4440    0.5280    0.6860 H         1 BNE1        0.0000
     13 C4         -0.4900   -1.5160    0.0580 C.3       1 BNE1        0.0000
     14 H4         -0.1220   -2.1400   -0.7930 H         1 BNE1        0.0000
     15 O4         -1.9090   -1.5060    0.0110 O.3       1 BNE1        0.0000
     16 HO4        -2.2190   -0.8590    0.6480 H         1 BNE1        0.0000
     17 C5          0.0260   -2.1370    1.3410 C.3       1 BNE1        0.0000
     18 H5         -0.4470   -1.5980    2.1980 H         1 BNE1        0.0000
     19 N5         -0.3760   -3.5210    1.4330 N.3       1 BNE1        0.0000
     20 HN51       -0.2300   -3.9220    2.3450 H         1 BNE1        0.0000
     21 HN52       -1.2150   -3.7350    0.9340 H         1 BNE1        0.0000
     22 C7          2.1380   -2.2420    2.8670 C.3       1 BNE1        0.0000
     23 H7          1.6510   -1.5570    3.6030 H         1 BNE1        0.0000
     24 O7          3.5280   -1.8870    2.8520 O.3       1 BNE1        0.0000
     25 HO7         3.5230   -1.1020    2.2790 H         1 BNE1        0.0000
     26 C8          1.9960   -3.6820    3.3740 C.3       1 BNE1        0.0000
     27 H8          2.0270   -4.3680    2.4940 H         1 BNE1        0.0000
     28 O8          0.7430   -3.8420    4.0540 O.3       1 BNE1        0.0000
     29 HO8         0.9460   -4.5650    4.6660 H         1 BNE1        0.0000
     30 C9          3.1050   -4.1110    4.3290 C.3       1 BNE1        0.0000
     31 H91         3.1520   -3.4050    5.1900 H         1 BNE1        0.0000
     32 H92         4.0860   -4.0860    3.8030 H         1 BNE1        0.0000
     33 O9          2.8830   -5.4470    4.8100 O.3       1 BNE1        0.0000
     34 HO9         3.7250   -5.7710    5.1480 H         1 BNE1        0.0000
@<TRIPOS>BOND
     1    6    5 1 
     2   11   10 1 
     3    5    4 1 
     4    3    1 ar
     5   14   13 1 
     6   10    4 1 
     7   10   13 1 
     8   10   12 1 
     9    1    4 1 
    10    1    2 ar
    11    4    9 1 
    12   15   13 1 
    13   15   16 1 
    14   13   17 1 
    15    8    7 1 
    16   21   19 1 
    17    9    7 1 
    18   17   19 1 
    19   17    7 1 
    20   17   18 1 
    21   19   20 1 
    22    7   22 1 
    23   25   24 1 
    24   27   26 1 
    25   24   22 1 
    26   22   26 1 
    27   22   23 1 
    28   26   28 1 
    29   26   30 1 
    30   32   30 1 
    31   28   29 1 
    32   30   33 1 
    33   30   31 1 
    34   33   34 1 
