@<TRIPOS>MOLECULE
C:\Users\Praveer\PycharmProjects\pdb_to_mol2_converter\data\pdb\boau.pdb
   21    21     0     0     0
SMALL
GASTEIGER

@<TRIPOS>ATOM
      1 N1          1.3770   -0.0020   -0.0100 N.ar      1 BOA1        0.0000
      2 C2          2.0730    1.2210    0.0100 C.ar      1 BOA1        0.0000
      3 O2          3.3000    1.2960    0.0150 O.2       1 BOA1        0.0000
      4 N3          1.3110    2.3560    0.0200 N.ar      1 BOA1        0.0000
      5 H3          1.8010    3.2270    0.0620 H         1 BOA1        0.0000
      6 C4         -0.0690    2.4110    0.0090 C.ar      1 BOA1        0.0000
      7 O4         -0.5860    3.5290    0.0270 O.2       1 BOA1        0.0000
      8 C5         -0.7670    1.1320   -0.0430 C.ar      1 BOA1        0.0000
      9 C6          0.0010   -0.0060   -0.0280 C.ar      1 BOA1        0.0000
     10 H6         -0.5010   -0.9750    0.0200 H         1 BOA1        0.0000
     11 O7         -2.1240    1.0090   -0.0950 O.3       1 BOA1        0.0000
     12 C8         -2.7410    1.1630    1.2040 C.3       1 BOA1        0.0000
     13 H81        -3.8400    1.2140    1.0540 H         1 BOA1        0.0000
     14 H82        -2.4280    2.1190    1.6750 H         1 BOA1        0.0000
     15 C9         -2.5090    0.0410    2.2430 C.2       1 BOA1        0.0000
     16 O91        -1.8240   -0.9570    1.9000 O.co2     1 BOA1        0.0000
     17 O92        -3.0430    0.2550    3.3630 O.co2     1 BOA1        0.0000
     18 CM          2.1490   -1.2590   -0.0090 C.3       1 BOA1        0.0000
     19 HM1         2.8100   -1.3180    0.8870 H         1 BOA1        0.0000
     20 HM2         2.8010   -1.3320   -0.9100 H         1 BOA1        0.0000
     21 HM3         1.4920   -2.1580    0.0080 H         1 BOA1        0.0000
@<TRIPOS>BOND
     1   20   18 1 
     2   11    8 1 
     3   11   12 1 
     4    8    9 ar
     5    8    6 ar
     6    9    1 ar
     7    9   10 1 
     8    1   18 1 
     9    1    2 ar
    10   18   21 1 
    11   18   19 1 
    12    6    4 ar
    13    6    7 2 
    14    2    3 2 
    15    2    4 ar
    16    4    5 1 
    17   13   12 1 
    18   12   14 1 
    19   12   15 1 
    20   16   15 ar
    21   15   17 ar
