@<TRIPOS>MOLECULE
C:\Users\Praveer\PycharmProjects\pdb_to_mol2_converter\data\pdb\bocu.pdb
   24    24     0     0     0
SMALL
GASTEIGER

@<TRIPOS>ATOM
      1 N1          1.3690    0.0040    0.0040 N.ar      1 BOC1        0.0000
      2 C2          2.0810    1.2200    0.0110 C.ar      1 BOC1        0.0000
      3 O2          3.3080    1.2790    0.0130 O.2       1 BOC1        0.0000
      4 N3          1.3280    2.3630    0.0170 N.ar      1 BOC1        0.0000
      5 H3          1.8260    3.2310    0.0030 H         1 BOC1        0.0000
      6 C4         -0.0460    2.4290    0.0090 C.ar      1 BOC1        0.0000
      7 O4         -0.5710    3.5400   -0.0020 O.2       1 BOC1        0.0000
      8 C5         -0.7520    1.1630    0.0200 C.ar      1 BOC1        0.0000
      9 C6         -0.0010    0.0090    0.0010 C.ar      1 BOC1        0.0000
     10 H6         -0.4870   -0.9680   -0.0330 H         1 BOC1        0.0000
     11 C7         -2.2570    1.1390    0.0090 C.3       1 BOC1        0.0000
     12 H71        -2.6490    2.0800    0.4520 H         1 BOC1        0.0000
     13 H72        -2.6170    0.2800    0.6110 H         1 BOC1        0.0000
     14 C8         -2.7760    0.9980   -1.4130 C.2       1 BOC1        0.0000
     15 O9         -4.0660    1.3170   -1.4480 O.3       1 BOC1        0.0000
     16 O8         -2.1170    0.6060   -2.3580 O.2       1 BOC1        0.0000
     17 C10        -4.6300    1.1970   -2.7660 C.3       1 BOC1        0.0000
     18 H101       -4.5670    0.1460   -3.1300 H         1 BOC1        0.0000
     19 H102       -4.0990    1.8590   -3.4870 H         1 BOC1        0.0000
     20 H103       -5.7010    1.4940   -2.7460 H         1 BOC1        0.0000
     21 CM          2.1330   -1.2560   -0.0080 C.3       1 BOC1        0.0000
     22 HM1         2.7990   -1.3300    0.8840 H         1 BOC1        0.0000
     23 HM2         2.7860   -1.3200   -0.9100 H         1 BOC1        0.0000
     24 HM3         1.4790   -2.1570   -0.0090 H         1 BOC1        0.0000
@<TRIPOS>BOND
     1   19   17 1 
     2   18   17 1 
     3   17   20 1 
     4   17   15 1 
     5   16   14 2 
     6   15   14 1 
     7   14   11 1 
     8   23   21 1 
     9   10    9 1 
    10   24   21 1 
    11   21    1 1 
    12   21   22 1 
    13    7    6 2 
    14    9    1 ar
    15    9    8 ar
    16    5    4 1 
    17    1    2 ar
    18    6    4 ar
    19    6    8 ar
    20   11    8 1 
    21   11   12 1 
    22   11   13 1 
    23    2    3 2 
    24    2    4 ar
