@<TRIPOS>MOLECULE
C:\Users\Praveer\PycharmProjects\pdb_to_mol2_converter\data\pdb\boeu.pdb
   25    25     0     0     0
SMALL
GASTEIGER

@<TRIPOS>ATOM
      1 N1          1.3720    0.0010    0.0020 N.ar      1 BOE1        0.0000
      2 C2          2.0790    1.2180    0.0090 C.ar      1 BOE1        0.0000
      3 O2          3.3040    1.2820    0.0200 O.2       1 BOE1        0.0000
      4 N3          1.3240    2.3560   -0.0010 N.ar      1 BOE1        0.0000
      5 H3          1.8290    3.2230   -0.0140 H         1 BOE1        0.0000
      6 C4         -0.0530    2.4270   -0.0260 C.ar      1 BOE1        0.0000
      7 O4         -0.5480    3.5530   -0.0610 O.2       1 BOE1        0.0000
      8 C5         -0.7690    1.1430   -0.0050 C.ar      1 BOE1        0.0000
      9 C6         -0.0010    0.0050   -0.0080 C.ar      1 BOE1        0.0000
     10 H6         -0.4940   -0.9670   -0.0310 H         1 BOE1        0.0000
     11 O7         -2.1320    0.9710   -0.0660 O.3       1 BOE1        0.0000
     12 C8         -2.9640    2.1160    0.2050 C.3       1 BOE1        0.0000
     13 H81        -2.9140    2.8300   -0.6450 H         1 BOE1        0.0000
     14 H82        -2.6350    2.6310    1.1350 H         1 BOE1        0.0000
     15 C9         -4.4510    1.7570    0.4080 C.2       1 BOE1        0.0000
     16 O9         -4.9370    0.6400    0.3970 O.2       1 BOE1        0.0000
     17 O10        -5.1460    2.8860    0.6070 O.3       1 BOE1        0.0000
     18 C11        -6.5500    2.6370    0.8000 C.3       1 BOE1        0.0000
     19 H111       -6.7200    1.9930    1.6920 H         1 BOE1        0.0000
     20 H112       -6.9910    2.1380   -0.0920 H         1 BOE1        0.0000
     21 H113       -7.0850    3.5990    0.9590 H         1 BOE1        0.0000
     22 CM          2.1370   -1.2600    0.0070 C.3       1 BOE1        0.0000
     23 HM1         2.7940   -1.3260    0.9060 H         1 BOE1        0.0000
     24 HM2         2.8010   -1.3280   -0.8870 H         1 BOE1        0.0000
     25 HM3         1.4840   -2.1620    0.0060 H         1 BOE1        0.0000
@<TRIPOS>BOND
     1   24   22 1 
     2   13   12 1 
     3   20   18 1 
     4   11    8 1 
     5   11   12 1 
     6    7    6 2 
     7   10    9 1 
     8    6    8 ar
     9    6    4 ar
    10    5    4 1 
    11    9    8 ar
    12    9    1 ar
    13    4    2 ar
    14    1   22 1 
    15    1    2 ar
    16   25   22 1 
    17   22   23 1 
    18    2    3 2 
    19   12   15 1 
    20   12   14 1 
    21   16   15 2 
    22   15   17 1 
    23   17   18 1 
    24   18   21 1 
    25   18   19 1 
