@<TRIPOS>MOLECULE
C:\Users\Praveer\PycharmProjects\pdb_to_mol2_converter\data\pdb\bog.pdb
   48    48     0     0     0
SMALL
GASTEIGER

@<TRIPOS>ATOM
      1 2C1         1.5050    0.0140    0.0870 C.3       1 BOG1        0.0000
      2 2H1         1.8550   -0.4120    1.0550 H         1 BOG1        0.0000
      3 2O1         2.0450   -0.7220   -0.9800 O.3       1 BOG1        0.0000
      4 2C5        -0.5020    0.6970    1.1630 C.3       1 BOG1        0.0000
      5 2H5        -0.1460    0.1990    2.0960 H         1 BOG1        0.0000
      6 2O5         0.0740    0.0380    0.0200 O.3       1 BOG1        0.0000
      7 2C2         1.9750    1.4440   -0.0520 C.3       1 BOG1        0.0000
      8 2H2         1.5490    1.8600   -0.9970 H         1 BOG1        0.0000
      9 2O2         3.4000    1.5300   -0.1430 O.3       1 BOG1        0.0000
     10 2HO2        3.6870    0.9900   -0.8910 H         1 BOG1        0.0000
     11 2C3         1.4470    2.2520    1.1160 C.3       1 BOG1        0.0000
     12 2H3         1.8650    1.8130    2.0550 H         1 BOG1        0.0000
     13 2O3         1.8770    3.6100    1.0490 O.3       1 BOG1        0.0000
     14 2HO3        2.8170    3.5930    0.8250 H         1 BOG1        0.0000
     15 2C4        -0.0620    2.1540    1.1750 C.3       1 BOG1        0.0000
     16 2H4        -0.4860    2.6540    0.2700 H         1 BOG1        0.0000
     17 2O4        -0.5710    2.8190    2.3230 O.3       1 BOG1        0.0000
     18 2HO4       -0.1310    3.6790    2.3650 H         1 BOG1        0.0000
     19 2C6        -2.0050    0.5330    1.0870 C.3       1 BOG1        0.0000
     20 2H61       -2.3980    1.0490    0.1820 H         1 BOG1        0.0000
     21 2H62       -2.4830    0.9970    1.9810 H         1 BOG1        0.0000
     22 2O6        -2.3730   -0.8440    1.0370 O.3       1 BOG1        0.0000
     23 2HO6       -1.9770   -1.2350    0.2490 H         1 BOG1        0.0000
     24 C1          1.8280   -2.1140   -0.8000 C.3       1 BOG1        0.0000
     25 H11         0.7370   -2.3240   -0.7280 H         1 BOG1        0.0000
     26 H12         2.3150   -2.4530    0.1420 H         1 BOG1        0.0000
     27 C2          2.4190   -2.9030   -1.9740 C.3       1 BOG1        0.0000
     28 H21         3.4820   -2.6030   -2.1110 H         1 BOG1        0.0000
     29 H22         1.8700   -2.6380   -2.9050 H         1 BOG1        0.0000
     30 C3          2.3560   -4.4200   -1.7490 C.3       1 BOG1        0.0000
     31 H31         1.2970   -4.7320   -1.6000 H         1 BOG1        0.0000
     32 H32         2.9150   -4.6680   -0.8180 H         1 BOG1        0.0000
     33 C4          2.9570   -5.2270   -2.9070 C.3       1 BOG1        0.0000
     34 H41         3.9930   -4.8690   -3.1020 H         1 BOG1        0.0000
     35 H42         2.3590   -5.0540   -3.8300 H         1 BOG1        0.0000
     36 C5          2.9990   -6.7280   -2.5940 C.3       1 BOG1        0.0000
     37 H51         1.9610   -7.0950   -2.4310 H         1 BOG1        0.0000
     38 H52         3.5620   -6.8810   -1.6450 H         1 BOG1        0.0000
     39 C6          3.6630   -7.5580   -3.7000 C.3       1 BOG1        0.0000
     40 H61         4.6940   -7.1770   -3.8720 H         1 BOG1        0.0000
     41 H62         3.0910   -7.4300   -4.6470 H         1 BOG1        0.0000
     42 C7          3.7340   -9.0500   -3.3470 C.3       1 BOG1        0.0000
     43 H71         2.7020   -9.4220   -3.1530 H         1 BOG1        0.0000
     44 H72         4.3120   -9.1640   -2.4010 H         1 BOG1        0.0000
     45 C8          4.3810   -9.9100   -4.4350 C.3       1 BOG1        0.0000
     46 H81         5.4200   -9.5710   -4.6350 H         1 BOG1        0.0000
     47 H82         3.8020   -9.8440   -5.3810 H         1 BOG1        0.0000
     48 H83         4.4150  -10.9750   -4.1190 H         1 BOG1        0.0000
@<TRIPOS>BOND
     1   47   45 1 
     2   41   39 1 
     3   46   45 1 
     4   45   48 1 
     5   45   42 1 
     6   40   39 1 
     7   35   33 1 
     8   39   42 1 
     9   39   36 1 
    10   42   43 1 
    11   42   44 1 
    12   34   33 1 
    13   33   36 1 
    14   33   30 1 
    15   29   27 1 
    16   36   37 1 
    17   36   38 1 
    18   28   27 1 
    19   27   30 1 
    20   27   24 1 
    21   30   31 1 
    22   30   32 1 
    23    8    7 1 
    24    3   24 1 
    25    3    1 1 
    26   10    9 1 
    27   24   25 1 
    28   24   26 1 
    29    9    7 1 
    30    7    1 1 
    31    7   11 1 
    32    6    1 1 
    33    6    4 1 
    34    1    2 1 
    35   20   19 1 
    36   23   22 1 
    37   16   15 1 
    38   14   13 1 
    39   22   19 1 
    40   13   11 1 
    41   19    4 1 
    42   19   21 1 
    43   11   15 1 
    44   11   12 1 
    45    4   15 1 
    46    4    5 1 
    47   15   17 1 
    48   17   18 1 
