@<TRIPOS>MOLECULE
C:\Users\Praveer\PycharmProjects\pdb_to_mol2_converter\data\pdb\boli.pdb
   22    22     0     0     0
SMALL
GASTEIGER

@<TRIPOS>ATOM
      1 C1          1.5640   -1.9240    1.4180 C.3       1 BOL1        0.0000
      2 H1          1.9520   -2.5030    0.5450 H         1 BOL1        0.0000
      3 O1          2.1500   -2.4560    2.5560 O.3       1 BOL1        0.0000
      4 HO1         1.9100   -1.8640    3.2700 H         1 BOL1        0.0000
      5 C5          1.5560    0.0020    0.0420 C.3       1 BOL1        0.0000
      6 H5          1.9890   -0.6030   -0.7900 H         1 BOL1        0.0000
      7 O5          1.9480   -0.5610    1.2990 O.3       1 BOL1        0.0000
      8 C2          0.0750   -1.9520    1.4420 C.3       1 BOL1        0.0000
      9 H21        -0.2940   -1.3480    2.3050 H         1 BOL1        0.0000
     10 H22        -0.2720   -3.0000    1.5940 H         1 BOL1        0.0000
     11 C3         -0.4830   -1.4060    0.1680 C.3       1 BOL1        0.0000
     12 H3         -0.1580   -2.0500   -0.6880 H         1 BOL1        0.0000
     13 O3         -1.8990   -1.4360    0.2410 O.3       1 BOL1        0.0000
     14 HO3        -2.2260   -2.2870   -0.0660 H         1 BOL1        0.0000
     15 C4          0.0370   -0.0050   -0.0720 C.3       1 BOL1        0.0000
     16 H4         -0.3630    0.6670    0.7250 H         1 BOL1        0.0000
     17 O4         -0.3830    0.4950   -1.3370 O.3       1 BOL1        0.0000
     18 HO4        -1.3440    0.5620   -1.3160 H         1 BOL1        0.0000
     19 C6          2.1720    1.4110   -0.0230 C.3       1 BOL1        0.0000
     20 H61         1.9180    1.8990   -0.9870 H         1 BOL1        0.0000
     21 H62         3.2770    1.3500    0.0670 H         1 BOL1        0.0000
     22 H63         1.7850    2.0380    0.8080 H         1 BOL1        0.0000
@<TRIPOS>BOND
     1   17   18 1 
     2   17   15 1 
     3   20   19 1 
     4    6    5 1 
     5   12   11 1 
     6   15    5 1 
     7   15   11 1 
     8   15   16 1 
     9   14   13 1 
    10   19    5 1 
    11   19   21 1 
    12   19   22 1 
    13    5    7 1 
    14   11   13 1 
    15   11    8 1 
    16    2    1 1 
    17    7    1 1 
    18    1    8 1 
    19    1    3 1 
    20    8   10 1 
    21    8    9 1 
    22    3    4 1 
