@<TRIPOS>MOLECULE
C:\Users\Praveer\PycharmProjects\pdb_to_mol2_converter\data\pdb\bom.pdb
   69    70     0     0     0
SMALL
GASTEIGER

@<TRIPOS>ATOM
      1 1C1         2.0440    2.0380    1.3120 C.3       1 BOM1        0.0000
      2 1H1         0.9890    2.3180    1.5280 H         1 BOM1        0.0000
      3 1C5         3.9700    1.0330    2.3290 C.3       1 BOM1        0.0000
      4 1H5         4.1360    0.4290    1.4080 H         1 BOM1        0.0000
      5 1O5         2.5730    1.3540    2.4560 O.3       1 BOM1        0.0000
      6 1C2         2.8080    3.3320    1.0930 C.3       1 BOM1        0.0000
      7 1H2         2.6260    3.9750    1.9900 H         1 BOM1        0.0000
      8 1O2         2.3270    4.0530   -0.0460 O.3       1 BOM1        0.0000
      9 1HO2        2.1790    3.4320   -0.7700 H         1 BOM1        0.0000
     10 1C3         4.3020    3.0920    1.0030 C.3       1 BOM1        0.0000
     11 1H3         4.5090    2.4820    0.0900 H         1 BOM1        0.0000
     12 1O3         5.0120    4.3230    0.8710 O.3       1 BOM1        0.0000
     13 1HO3        4.4830    4.8980    0.3000 H         1 BOM1        0.0000
     14 1C4         4.7730    2.3160    2.2120 C.3       1 BOM1        0.0000
     15 1H4         4.6010    2.9280    3.1290 H         1 BOM1        0.0000
     16 1O4         6.1630    2.0300    2.1270 O.3       1 BOM1        0.0000
     17 1HO4        6.6010    2.8520    1.8680 H         1 BOM1        0.0000
     18 1C6         4.3550    0.1730    3.5130 C.3       1 BOM1        0.0000
     19 1H61        4.2140    0.7400    4.4600 H         1 BOM1        0.0000
     20 1H62        5.4290   -0.1150    3.4400 H         1 BOM1        0.0000
     21 1O6         3.5730   -1.0220    3.5550 O.3       1 BOM1        0.0000
     22 1HO6        2.6510   -0.7760    3.6940 H         1 BOM1        0.0000
     23 2C1         0.1090   -2.0820   -1.3400 C.3       1 BOM1        0.0000
     24 2H1        -0.1010   -1.4890   -2.2600 H         1 BOM1        0.0000
     25 2O1        -0.4280   -3.3750   -1.4650 O.3       1 BOM1        0.0000
     26 2C5         2.0910   -0.8180   -0.9990 C.3       1 BOM1        0.0000
     27 2H5         1.8630   -0.2720   -1.9460 H         1 BOM1        0.0000
     28 2O5         1.5110   -2.1320   -1.0600 O.3       1 BOM1        0.0000
     29 2C2        -0.5450   -1.4410   -0.1400 C.3       1 BOM1        0.0000
     30 2H2        -0.2700   -2.0450    0.7600 H         1 BOM1        0.0000
     31 2O2        -1.9740   -1.4490   -0.2480 O.3       1 BOM1        0.0000
     32 2HO2       -2.2690   -2.3670   -0.3000 H         1 BOM1        0.0000
     33 2C3        -0.0180   -0.0320    0.0570 C.3       1 BOM1        0.0000
     34 2H3        -0.2990    0.5750   -0.8380 H         1 BOM1        0.0000
     35 2O3        -0.6380    0.5600    1.1900 O.3       1 BOM1        0.0000
     36 2HO3       -1.5780    0.3400    1.1350 H         1 BOM1        0.0000
     37 2C4         1.4960   -0.0370    0.1690 C.3       1 BOM1        0.0000
     38 2H4         1.7850   -0.5620    1.1110 H         1 BOM1        0.0000
     39 2O4         2.1040    1.2670    0.1290 O.3       1 BOM1        0.0000
     40 2C6         3.5930   -0.9820   -0.9110 C.3       1 BOM1        0.0000
     41 2H61        3.8650   -1.5450    0.0120 H         1 BOM1        0.0000
     42 2H62        4.0790    0.0180   -0.8610 H         1 BOM1        0.0000
     43 2O6         4.1120   -1.6640   -2.0520 O.3       1 BOM1        0.0000
     44 2HO6        3.7930   -2.5740   -2.0390 H         1 BOM1        0.0000
     45 C1         -0.0660   -3.9710   -2.7020 C.3       1 BOM1        0.0000
     46 H11         1.0420   -4.0490   -2.7780 H         1 BOM1        0.0000
     47 H12        -0.4340   -3.3430   -3.5440 H         1 BOM1        0.0000
     48 C2         -0.6860   -5.3680   -2.8230 C.3       1 BOM1        0.0000
     49 H21        -1.7800   -5.2930   -2.6340 H         1 BOM1        0.0000
     50 H22        -0.2530   -6.0280   -2.0390 H         1 BOM1        0.0000
     51 C3         -0.4590   -5.9890   -4.2090 C.3       1 BOM1        0.0000
     52 H31         0.6340   -6.0540   -4.4110 H         1 BOM1        0.0000
     53 H32        -0.9060   -5.3190   -4.9780 H         1 BOM1        0.0000
     54 C4         -1.0790   -7.3850   -4.3610 C.3       1 BOM1        0.0000
     55 H41        -2.1610   -7.3340   -4.1060 H         1 BOM1        0.0000
     56 H42        -0.5950   -8.0860   -3.6450 H         1 BOM1        0.0000
     57 C5         -0.9280   -7.9260   -5.7900 C.3       1 BOM1        0.0000
     58 H51         0.1530   -7.9940   -6.0460 H         1 BOM1        0.0000
     59 H52        -1.3980   -7.2050   -6.4960 H         1 BOM1        0.0000
     60 C6         -1.5800   -9.3010   -5.9860 C.3       1 BOM1        0.0000
     61 H61        -2.6510   -9.2430   -5.6910 H         1 BOM1        0.0000
     62 H62        -1.0840  -10.0430   -5.3210 H         1 BOM1        0.0000
     63 C7         -1.4910   -9.7860   -7.4400 C.3       1 BOM1        0.0000
     64 H71        -0.4180   -9.8620   -7.7290 H         1 BOM1        0.0000
     65 H72        -1.9600   -9.0200   -8.1000 H         1 BOM1        0.0000
     66 C8         -2.1760  -11.1340   -7.6760 C.3       1 BOM1        0.0000
     67 H81        -3.2540  -11.0730   -7.4120 H         1 BOM1        0.0000
     68 H82        -1.7060  -11.9230   -7.0510 H         1 BOM1        0.0000
     69 H83        -2.0920  -11.4330   -8.7430 H         1 BOM1        0.0000
@<TRIPOS>BOND
     1   69   66 1 
     2   65   63 1 
     3   64   63 1 
     4   66   63 1 
     5   66   67 1 
     6   66   68 1 
     7   63   60 1 
     8   59   57 1 
     9   58   57 1 
    10   60   57 1 
    11   60   61 1 
    12   60   62 1 
    13   57   54 1 
    14   53   51 1 
    15   52   51 1 
    16   54   51 1 
    17   54   55 1 
    18   54   56 1 
    19   51   48 1 
    20   47   45 1 
    21   48   45 1 
    22   48   49 1 
    23   48   50 1 
    24   46   45 1 
    25   45   25 1 
    26   24   23 1 
    27   43   44 1 
    28   43   40 1 
    29   27   26 1 
    30   25   23 1 
    31   23   28 1 
    32   23   29 1 
    33   28   26 1 
    34   26   40 1 
    35   26   37 1 
    36   40   42 1 
    37   40   41 1 
    38   34   33 1 
    39    9    8 1 
    40   32   31 1 
    41   31   29 1 
    42   29   33 1 
    43   29   30 1 
    44    8    6 1 
    45   33   37 1 
    46   33   35 1 
    47   11   10 1 
    48   39   37 1 
    49   39    1 1 
    50   37   38 1 
    51   13   12 1 
    52   12   10 1 
    53   10    6 1 
    54   10   14 1 
    55    6    1 1 
    56    6    7 1 
    57   36   35 1 
    58    1    2 1 
    59    1    5 1 
    60    4    3 1 
    61   17   16 1 
    62   16   14 1 
    63   14    3 1 
    64   14   15 1 
    65    3    5 1 
    66    3   18 1 
    67   20   18 1 
    68   18   21 1 
    69   18   19 1 
    70   21   22 1 
