@<TRIPOS>MOLECULE
C:\Users\Praveer\PycharmProjects\pdb_to_mol2_converter\data\pdb\bpar.pdb
   22    22     0     0     0
SMALL
GASTEIGER

@<TRIPOS>ATOM
      1 C1          1.4250   -0.0190    0.0080 C.3       1 BPA1        0.0000
      2 H1          1.7020   -0.4360    1.0040 H         1 BPA1        0.0000
      3 O1          1.9360   -0.8710   -0.9820 O.3       1 BPA1        0.0000
      4 HO1         2.8920   -0.8230   -0.9020 H         1 BPA1        0.0000
      5 C5         -0.5230    0.9100    0.9840 C.3       1 BPA1        0.0000
      6 H5         -0.2170    0.4760    1.9650 H         1 BPA1        0.0000
      7 O5          0.0040    0.1080   -0.0780 O.3       1 BPA1        0.0000
      8 C2          2.0400    1.3700   -0.1550 C.3       1 BPA1        0.0000
      9 H2          1.7510    1.7440   -1.1690 H         1 BPA1        0.0000
     10 O2          3.4630    1.3560   -0.0690 O.3       1 BPA1        0.0000
     11 HO2         3.8190    2.1650   -0.4500 H         1 BPA1        0.0000
     12 C3          1.5220    2.3120    0.8880 C.3       1 BPA1        0.0000
     13 H31         1.9140    3.3410    0.7180 H         1 BPA1        0.0000
     14 H32         1.8770    1.9840    1.8950 H         1 BPA1        0.0000
     15 C4          0.0270    2.3260    0.8680 C.3       1 BPA1        0.0000
     16 H4         -0.3240    2.7610   -0.0990 H         1 BPA1        0.0000
     17 O4         -0.4250    3.1450    1.9300 O.3       1 BPA1        0.0000
     18 HO4        -1.2230    3.6120    1.6670 H         1 BPA1        0.0000
     19 C6         -2.0560    0.8310    0.8760 C.3       1 BPA1        0.0000
     20 H61        -2.5370    1.3960    1.7010 H         1 BPA1        0.0000
     21 H62        -2.3840   -0.2290    0.9360 H         1 BPA1        0.0000
     22 H63        -2.3960    1.2450   -0.0960 H         1 BPA1        0.0000
@<TRIPOS>BOND
     1    9    8 1 
     2    3    4 1 
     3    3    1 1 
     4   11   10 1 
     5    8   10 1 
     6    8    1 1 
     7    8   12 1 
     8   16   15 1 
     9   22   19 1 
    10    7    1 1 
    11    7    5 1 
    12    1    2 1 
    13   13   12 1 
    14   15   12 1 
    15   15    5 1 
    16   15   17 1 
    17   19   21 1 
    18   19    5 1 
    19   19   20 1 
    20   12   14 1 
    21    5    6 1 
    22   18   17 1 
