@<TRIPOS>MOLECULE
C:\Users\Praveer\PycharmProjects\pdb_to_mol2_converter\data\pdb\bpbg.pdb
   52    54     0     0     0
SMALL
GASTEIGER

@<TRIPOS>ATOM
      1 N9          1.3940    0.0060    0.0020 N.ar      1 BPB1        0.0000
      2 C8          1.7640    1.3310    0.0010 C.ar      1 BPB1        0.0000
      3 H8          2.8100    1.6390    0.0060 H         1 BPB1        0.0000
      4 N7          0.7400    2.1610   -0.0060 N.ar      1 BPB1        0.0000
      5 C5         -0.3910    1.3500   -0.0090 C.ar      1 BPB1        0.0000
      6 C6         -1.7610    1.7120   -0.0110 C.ar      1 BPB1        0.0000
      7 O6         -2.1630    2.8840   -0.0070 O.2       1 BPB1        0.0000
      8 N1         -2.6500    0.5930    0.0070 N.ar      1 BPB1        0.0000
      9 C2         -2.2500   -0.7530    0.0470 C.ar      1 BPB1        0.0000
     10 N2         -3.3150   -1.5710    0.1230 N.ar      1 BPB1        0.0000
     11 N3         -0.8940   -1.0800   -0.0080 N.ar      1 BPB1        0.0000
     12 C4         -0.0030    0.0020   -0.0070 C.ar      1 BPB1        0.0000
     13 C12        -4.0400    0.5880    0.0380 C.ar      1 BPB1        0.0000
     14 C11        -4.4150   -0.7360    0.1300 C.ar      1 BPB1        0.0000
     15 C3         -0.5300   -2.5030   -0.1390 C.3       1 BPB1        0.0000
     16 H31        -1.4120   -3.1800   -0.2020 H         1 BPB1        0.0000
     17 H32         0.0680   -2.8470    0.7350 H         1 BPB1        0.0000
     18 H33         0.0690   -2.6830   -1.0600 H         1 BPB1        0.0000
     19 C10        -5.7250   -1.4450    0.2360 C.3       1 BPB1        0.0000
     20 H101       -5.6450   -2.2680    0.9770 H         1 BPB1        0.0000
     21 H102       -5.9880   -1.8760   -0.7510 H         1 BPB1        0.0000
     22 H103       -6.5220   -0.7570    0.5700 H         1 BPB1        0.0000
     23 C13        -4.8750    1.8710   -0.0380 C.3       1 BPB1        0.0000
     24 H131       -4.4810    2.4750   -0.8870 H         1 BPB1        0.0000
     25 H132       -4.6630    2.4440    0.8900 H         1 BPB1        0.0000
     26 C14        -6.4220    1.8060   -0.2510 C.3       1 BPB1        0.0000
     27 H14        -6.8770    1.3260    0.6460 H         1 BPB1        0.0000
     28 O14        -6.6900    1.0380   -1.4320 O.3       1 BPB1        0.0000
     29 O15        -8.0650    0.5150   -1.3870 O.3       1 BPB1        0.0000
     30 H15O       -7.8770   -0.4210   -1.5230 H         1 BPB1        0.0000
     31 C16        -7.0090    3.2050   -0.4060 C.3       1 BPB1        0.0000
     32 H16        -6.5710    3.6700   -1.3180 H         1 BPB1        0.0000
     33 N20        -8.4530    3.2310   -0.5630 N.am      1 BPB1        0.0000
     34 H20        -8.8510    2.4110   -0.9750 H         1 BPB1        0.0000
     35 C21        -9.1310    4.4050   -0.6780 C.2       1 BPB1        0.0000
     36 O22        -8.6510    5.5230   -0.5400 O.2       1 BPB1        0.0000
     37 O23       -10.4200    4.1540   -0.9760 O.3       1 BPB1        0.0000
     38 C24       -11.2200    5.3420   -1.0980 C.3       1 BPB1        0.0000
     39 H241      -10.8370    5.9920   -1.9160 H         1 BPB1        0.0000
     40 H242      -11.2180    5.9180   -0.1450 H         1 BPB1        0.0000
     41 H243      -12.2680    5.0620   -1.3350 H         1 BPB1        0.0000
     42 C17        -6.5340    4.0040    0.8240 C.2       1 BPB1        0.0000
     43 O17        -6.7980    3.7260    1.9830 O.2       1 BPB1        0.0000
     44 O18        -5.6970    4.9810    0.4500 O.3       1 BPB1        0.0000
     45 C19        -5.1460    5.6980    1.5650 C.3       1 BPB1        0.0000
     46 H191       -4.5700    5.0160    2.2310 H         1 BPB1        0.0000
     47 H192       -5.9520    6.1880    2.1570 H         1 BPB1        0.0000
     48 H193       -4.4540    6.4880    1.1980 H         1 BPB1        0.0000
     49 CM          2.3140   -1.1430    0.0110 C.3       1 BPB1        0.0000
     50 HM1         3.3790   -0.8190    0.0390 H         1 BPB1        0.0000
     51 HM2         2.1790   -1.7630   -0.9020 H         1 BPB1        0.0000
     52 HM3         2.1360   -1.7820    0.9030 H         1 BPB1        0.0000
@<TRIPOS>BOND
     1   39   38 1 
     2   30   29 1 
     3   28   29 1 
     4   28   26 1 
     5   41   38 1 
     6   32   31 1 
     7   38   37 1 
     8   38   40 1 
     9   18   15 1 
    10   37   35 1 
    11   34   33 1 
    12   51   49 1 
    13   24   23 1 
    14   21   19 1 
    15   35   33 am
    16   35   36 2 
    17   33   31 1 
    18   31   26 1 
    19   31   42 1 
    20   26   23 1 
    21   26   27 1 
    22   16   15 1 
    23   15   11 1 
    24   15   17 1 
    25   23   13 1 
    26   23   25 1 
    27    6    5 ar
    28    6    7 2 
    29    6    8 ar
    30    5   12 ar
    31    5    4 ar
    32   11   12 ar
    33   11    9 ar
    34   12    1 ar
    35    4    2 ar
    36    2    1 ar
    37    2    3 1 
    38    1   49 1 
    39    8   13 ar
    40    8    9 ar
    41   49   50 1 
    42   49   52 1 
    43   13   14 ar
    44    9   10 ar
    45   10   14 ar
    46   14   19 1 
    47   19   22 1 
    48   19   20 1 
    49   44   42 1 
    50   44   45 1 
    51   42   43 2 
    52   48   45 1 
    53   45   47 1 
    54   45   46 1 
