@<TRIPOS>MOLECULE
C:\Users\Praveer\PycharmProjects\pdb_to_mol2_converter\data\pdb\bpet.pdb
   24    23     0     0     0
SMALL
GASTEIGER

@<TRIPOS>ATOM
      1 C1          1.1730    0.0110    0.0030 C.3       1 BPE1        0.0000
      2 H11         1.5530   -0.5100    0.9120 H         1 BPE1        0.0000
      3 H12         1.5530   -0.5130   -0.9040 H         1 BPE1        0.0000
      4 H13         0.0640   -0.0610    0.0030 H         1 BPE1        0.0000
      5 O2          1.5580    1.3850    0.0010 O.3       1 BPE1        0.0000
      6 P3          3.1660    1.7110    0.0000 P.3       1 BPE1        0.0000
      7 O31         3.7240    1.1990    1.3080 O.3       1 BPE1        0.0000
      8 O32         3.7230    1.1980   -1.3070 O.2       1 BPE1        0.0000
      9 O4          3.2610    3.3370   -0.0000 O.3       1 BPE1        0.0000
     10 C5          4.5800    3.9120   -0.0000 C.3       1 BPE1        0.0000
     11 H51         5.1530    3.6070   -0.9080 H         1 BPE1        0.0000
     12 H52         5.1530    3.6070    0.9070 H         1 BPE1        0.0000
     13 C6          4.4700    5.4460   -0.0000 C.3       1 BPE1        0.0000
     14 H61         3.8960    5.7510    0.9070 H         1 BPE1        0.0000
     15 H62         3.8960    5.7510   -0.9080 H         1 BPE1        0.0000
     16 O7          5.7880    6.0230   -0.0000 O.3       1 BPE1        0.0000
     17 P8          5.8790    7.6490    0.0000 P.3       1 BPE1        0.0000
     18 O81         5.3200    8.1600   -1.3070 O.2       1 BPE1        0.0000
     19 O82         5.3190    8.1600    1.3080 O.3       1 BPE1        0.0000
     20 O9          7.4850    7.9810    0.0010 O.3       1 BPE1        0.0000
     21 C10         7.8660    9.3560    0.0030 C.3       1 BPE1        0.0000
     22 H101        7.4830    9.8750    0.9120 H         1 BPE1        0.0000
     23 H102        7.4830    9.8780   -0.9040 H         1 BPE1        0.0000
     24 H103        8.9740    9.4320    0.0030 H         1 BPE1        0.0000
@<TRIPOS>BOND
     1    8    6 2 
     2   18   17 2 
     3   11   10 1 
     4   15   13 1 
     5    3    1 1 
     6   23   21 1 
     7    6    9 1 
     8    6    5 1 
     9    6    7 1 
    10    9   10 1 
    11   10   13 1 
    12   10   12 1 
    13   13   16 1 
    14   13   14 1 
    15   16   17 1 
    16   17   20 1 
    17   17   19 1 
    18    5    1 1 
    19   20   21 1 
    20    1    4 1 
    21    1    2 1 
    22   21   24 1 
    23   21   22 1 
