@<TRIPOS>MOLECULE
C:\Users\Praveer\PycharmProjects\pdb_to_mol2_converter\data\pdb\bpip.pdb
   31    32     0     0     0
SMALL
GASTEIGER

@<TRIPOS>ATOM
      1 CB          2.1810   -0.9660    0.9350 C.3       1 BPI1        0.0000
      2 HB1         3.2630   -0.9220    0.7270 H         1 BPI1        0.0000
      3 HB2         1.7640   -1.9660    0.7290 H         1 BPI1        0.0000
      4 N1          1.5130   -0.0080   -0.0070 N.4       1 BPI1        0.0000
      5 H1          1.7490   -0.3540   -0.9690 H         1 BPI1        0.0000
      6 C2          2.0330    1.4150   -0.0060 C.3       1 BPI1        0.0000
      7 H21         3.1310    1.3310    0.0340 H         1 BPI1        0.0000
      8 H22         1.6540    1.8720    0.9230 H         1 BPI1        0.0000
      9 C6         -0.0030    0.0010    0.0010 C.3       1 BPI1        0.0000
     10 H61        -0.2940    0.5180    0.9300 H         1 BPI1        0.0000
     11 H62        -0.3070   -1.0570    0.0450 H         1 BPI1        0.0000
     12 C3          1.5490    2.1550   -1.2570 C.3       1 BPI1        0.0000
     13 H31         1.9660    1.6770   -2.1720 H         1 BPI1        0.0000
     14 H32         1.9110    3.2070   -1.2330 H         1 BPI1        0.0000
     15 C4          0.0140    2.1430   -1.3240 C.3       1 BPI1        0.0000
     16 H41        -0.3270    2.6300   -2.2660 H         1 BPI1        0.0000
     17 H42        -0.3960    2.7380   -0.4760 H         1 BPI1        0.0000
     18 C5         -0.5320    0.7090   -1.2500 C.3       1 BPI1        0.0000
     19 H51        -1.6450    0.7370   -1.2220 H         1 BPI1        0.0000
     20 H52        -0.2340    0.1490   -2.1640 H         1 BPI1        0.0000
     21 CZ          1.8750   -0.5230    2.3230 C.ar      1 BPI1        0.0000
     22 CD1         0.7660   -1.0520    3.0180 C.ar      1 BPI1        0.0000
     23 HD1         0.1010   -1.7520    2.5350 H         1 BPI1        0.0000
     24 CD2         2.7560    0.3360    3.0140 C.ar      1 BPI1        0.0000
     25 HD2         3.6420    0.7180    2.5280 H         1 BPI1        0.0000
     26 CE1         0.5080   -0.6760    4.3410 C.ar      1 BPI1        0.0000
     27 HE1        -0.3500   -1.0770    4.8640 H         1 BPI1        0.0000
     28 CE2         2.4960    0.7110    4.3380 C.ar      1 BPI1        0.0000
     29 HE2         3.1700    1.3790    4.8570 H         1 BPI1        0.0000
     30 CP          1.3690    0.2100    4.9980 C.ar      1 BPI1        0.0000
     31 HP          1.1720    0.4950    6.0230 H         1 BPI1        0.0000
@<TRIPOS>BOND
     1   16   15 1 
     2   13   12 1 
     3   20   18 1 
     4   15   12 1 
     5   15   18 1 
     6   15   17 1 
     7   12   14 1 
     8   12    6 1 
     9   18   19 1 
    10   18    9 1 
    11    5    4 1 
    12    4    6 1 
    13    4    9 1 
    14    4    1 1 
    15    6    7 1 
    16    6    8 1 
    17    9   11 1 
    18    9   10 1 
    19    2    1 1 
    20    3    1 1 
    21    1   21 1 
    22   21   24 ar
    23   21   22 ar
    24   25   24 1 
    25   23   22 1 
    26   24   28 ar
    27   22   26 ar
    28   28   29 1 
    29   28   30 ar
    30   26   27 1 
    31   26   30 ar
    32   30   31 1 
