@<TRIPOS>MOLECULE
C:\Users\Praveer\PycharmProjects\pdb_to_mol2_converter\data\pdb\bpnp.pdb
   24    25     0     0     0
SMALL
GASTEIGER

@<TRIPOS>ATOM
      1 C2          1.5910    0.1820   -0.1460 C.3       1 BPN1        0.0000
      2 H21         2.0100   -0.1700    0.8180 H         1 BPN1        0.0000
      3 O3'         2.1220   -0.5180   -1.2570 O.3       1 BPN1        0.0000
      4 P           3.7000   -0.8710   -1.2670 P.3       1 BPN1        0.0000
      5 O1P         4.4640    0.4220   -1.4310 O.2       1 BPN1        0.0000
      6 O2P         3.9810   -1.7730   -0.0860 O.3       1 BPN1        0.0000
      7 O5'         3.8900   -1.7510   -2.6290 O.3       1 BPN1        0.0000
      8 C5'         5.1910   -1.8840   -3.1920 C.3       1 BPN1        0.0000
      9 H51'        5.8620   -2.4570   -2.5120 H         1 BPN1        0.0000
     10 H52'        5.6460   -0.8890   -3.4030 H         1 BPN1        0.0000
     11 H53'        5.1140   -2.4390   -4.1510 H         1 BPN1        0.0000
     12 C4          0.5020    2.3630    0.2940 C.3       1 BPN1        0.0000
     13 H41         0.2120    3.2740   -0.2530 H         1 BPN1        0.0000
     14 H42         0.6600    2.6490    1.3470 H         1 BPN1        0.0000
     15 C3          1.7620    1.7030   -0.2980 C.3       1 BPN1        0.0000
     16 H31         1.8300    1.9510   -1.3740 H         1 BPN1        0.0000
     17 H32         2.7020    2.0530    0.1510 H         1 BPN1        0.0000
     18 C1          0.0770   -0.0270   -0.0810 C.3       1 BPN1        0.0000
     19 H11        -0.3420   -0.8970    0.4430 H         1 BPN1        0.0000
     20 C5         -0.5690    1.2940    0.2080 C.3       1 BPN1        0.0000
     21 H51        -1.4170    1.2720    0.9090 H         1 BPN1        0.0000
     22 C6         -0.7630    0.6490   -1.1640 C.3       1 BPN1        0.0000
     23 H61        -1.7350    0.2010   -1.3000 H         1 BPN1        0.0000
     24 H62        -0.1380    1.0140   -1.9680 H         1 BPN1        0.0000
@<TRIPOS>BOND
     1   11    8 1 
     2   10    8 1 
     3    8    7 1 
     4    8    9 1 
     5    7    4 1 
     6   24   22 1 
     7    5    4 2 
     8   16   15 1 
     9   23   22 1 
    10    4    3 1 
    11    4    6 1 
    12    3    1 1 
    13   22   18 1 
    14   22   20 1 
    15   15    1 1 
    16   15   17 1 
    17   15   12 1 
    18   13   12 1 
    19    1   18 1 
    20    1    2 1 
    21   18   20 1 
    22   18   19 1 
    23   20   12 1 
    24   20   21 1 
    25   12   14 1 
