@<TRIPOS>MOLECULE
C:\Users\Praveer\PycharmProjects\pdb_to_mol2_converter\data\pdb\bpse.pdb
   44    44     0     0     0
SMALL
GASTEIGER

@<TRIPOS>ATOM
      1 C1          1.7290    1.4840   -0.0520 C.2       1 BPS1        0.0000
      2 O11         0.9980    2.2300    0.6620 O.co2     1 BPS1        0.0000
      3 O12         2.6220    1.8210   -0.8770 O.co2     1 BPS1        0.0000
      4 C2          1.3730   -0.0400   -0.0120 C.3       1 BPS1        0.0000
      5 O2          2.1270   -0.7450   -0.9640 O.3       1 BPS1        0.0000
      6 HO2         2.6750   -0.0110   -1.2860 H         1 BPS1        0.0000
      7 C6          1.5260   -1.8820    1.5290 C.3       1 BPS1        0.0000
      8 H6          1.9810   -2.5080    0.7260 H         1 BPS1        0.0000
      9 O6          1.8110   -0.4930    1.2790 O.3       1 BPS1        0.0000
     10 C3         -0.1220   -0.2970   -0.1910 C.3       1 BPS1        0.0000
     11 H31        -0.4090   -0.0540   -1.2390 H         1 BPS1        0.0000
     12 H32        -0.6880    0.3990    0.4690 H         1 BPS1        0.0000
     13 C4         -0.4860   -1.7050    0.1340 C.3       1 BPS1        0.0000
     14 H4         -0.0180   -2.3750   -0.6290 H         1 BPS1        0.0000
     15 O4         -1.8860   -1.8850    0.0610 O.3       1 BPS1        0.0000
     16 HO4        -2.2320   -1.8810    0.9610 H         1 BPS1        0.0000
     17 C5          0.0240   -2.0860    1.5060 C.3       1 BPS1        0.0000
     18 H5         -0.1770   -3.1810    1.6090 H         1 BPS1        0.0000
     19 N51        -0.5950   -1.3520    2.5940 N.am      1 BPS1        0.0000
     20 HN51       -0.1880   -0.4580    2.7690 H         1 BPS1        0.0000
     21 C51        -1.5990   -1.8150    3.3410 C.2       1 BPS1        0.0000
     22 O51        -2.1460   -2.8790    3.0830 O.2       1 BPS1        0.0000
     23 CT51       -2.0220   -0.9810    4.5200 C.3       1 BPS1        0.0000
     24 HT51       -2.1460    0.0780    4.2170 H         1 BPS1        0.0000
     25 HT52       -1.2510   -1.0490    5.3160 H         1 BPS1        0.0000
     26 HT53       -2.9830   -1.3710    4.9170 H         1 BPS1        0.0000
     27 C7          2.2630   -2.2560    2.8230 C.3       1 BPS1        0.0000
     28 H7          1.8490   -1.6440    3.6610 H         1 BPS1        0.0000
     29 N71         3.6340   -1.8200    2.6170 N.am      1 BPS1        0.0000
     30 HN71        3.8770   -1.6560    1.6680 H         1 BPS1        0.0000
     31 C71         4.4790   -1.3500    3.5480 C.2       1 BPS1        0.0000
     32 O71         4.2520   -1.3900    4.7470 O.2       1 BPS1        0.0000
     33 CT71        5.7570   -0.7430    3.0310 C.3       1 BPS1        0.0000
     34 HT71        5.8110   -0.8030    1.9220 H         1 BPS1        0.0000
     35 HT72        6.6240   -1.2730    3.4730 H         1 BPS1        0.0000
     36 HT73        5.7850    0.3230    3.3370 H         1 BPS1        0.0000
     37 C8          2.0940   -3.7480    3.2060 C.3       1 BPS1        0.0000
     38 H8          2.2360   -4.3720    2.2940 H         1 BPS1        0.0000
     39 O8          0.8230   -4.0340    3.7810 O.3       1 BPS1        0.0000
     40 HO8         0.1230   -3.6760    3.2210 H         1 BPS1        0.0000
     41 C9          3.1050   -4.2060    4.2700 C.3       1 BPS1        0.0000
     42 H91         2.9910   -3.5840    5.1840 H         1 BPS1        0.0000
     43 H92         4.1470   -4.1150    3.9050 H         1 BPS1        0.0000
     44 H93         2.9220   -5.2660    4.5480 H         1 BPS1        0.0000
@<TRIPOS>BOND
     1    6    5 1 
     2   11   10 1 
     3    5    4 1 
     4    3    1 ar
     5   14   13 1 
     6   10    4 1 
     7   10   13 1 
     8   10   12 1 
     9    1    4 1 
    10    1    2 ar
    11    4    9 1 
    12   15   13 1 
    13   15   16 1 
    14   13   17 1 
    15    8    7 1 
    16    9    7 1 
    17   17    7 1 
    18   17   18 1 
    19   17   19 1 
    20    7   27 1 
    21   30   29 1 
    22   34   33 1 
    23   38   37 1 
    24   19   20 1 
    25   19   21 am
    26   29   27 1 
    27   29   31 am
    28   27   37 1 
    29   27   28 1 
    30   33   36 1 
    31   33   35 1 
    32   33   31 1 
    33   22   21 2 
    34   37   39 1 
    35   37   41 1 
    36   40   39 1 
    37   21   23 1 
    38   31   32 2 
    39   43   41 1 
    40   24   23 1 
    41   41   44 1 
    42   41   42 1 
    43   23   26 1 
    44   23   25 1 
