@<TRIPOS>MOLECULE
C:\Users\Praveer\PycharmProjects\pdb_to_mol2_converter\data\pdb\bpsi.pdb
   24    24     0     0     0
SMALL
GASTEIGER

@<TRIPOS>ATOM
      1 O5          1.4870    0.0820    0.1570 O.3       1 BPS1        0.0000
      2 C2          1.9780    1.4170    0.0090 C.3       1 BPS1        0.0000
      3 O2          2.9070    1.2790    1.0290 O.3       1 BPS1        0.0000
      4 HO2         2.9340    0.3260    1.1380 H         1 BPS1        0.0000
      5 C5          0.0520    0.0520    0.0160 C.3       1 BPS1        0.0000
      6 H5         -0.1770   -0.5480   -0.8980 H         1 BPS1        0.0000
      7 C6         -0.5250   -0.6510    1.2220 C.3       1 BPS1        0.0000
      8 H61        -1.6370   -0.5870    1.2060 H         1 BPS1        0.0000
      9 H62        -0.1670   -0.1680    2.1600 H         1 BPS1        0.0000
     10 O6         -0.1680   -2.0320    1.2390 O.3       1 BPS1        0.0000
     11 HO6         0.7910   -2.1180    1.1940 H         1 BPS1        0.0000
     12 C1          2.6600    1.6260   -1.3390 C.3       1 BPS1        0.0000
     13 H11         3.5700    0.9880   -1.3940 H         1 BPS1        0.0000
     14 H12         2.9980    2.6840   -1.4110 H         1 BPS1        0.0000
     15 O1          1.8430    1.3080   -2.4790 O.3       1 BPS1        0.0000
     16 HO1         0.9090    1.5230   -2.3090 H         1 BPS1        0.0000
     17 C3          0.7760    2.3250    0.3630 C.3       1 BPS1        0.0000
     18 H3          0.7030    2.3850    1.4730 H         1 BPS1        0.0000
     19 O3          0.8320    3.6530   -0.1280 O.3       1 BPS1        0.0000
     20 HO3         0.6390    3.6450   -1.0730 H         1 BPS1        0.0000
     21 C4         -0.4140    1.4990   -0.1540 C.3       1 BPS1        0.0000
     22 H4         -1.2970    1.7040    0.4910 H         1 BPS1        0.0000
     23 O4         -0.7860    1.8170   -1.4820 O.3       1 BPS1        0.0000
     24 HO4        -1.7480    1.8460   -1.5650 H         1 BPS1        0.0000
@<TRIPOS>BOND
     1   15   16 1 
     2   15   12 1 
     3   24   23 1 
     4   23   21 1 
     5   14   12 1 
     6   13   12 1 
     7   12    2 1 
     8   20   19 1 
     9    6    5 1 
    10   21    5 1 
    11   21   17 1 
    12   21   22 1 
    13   19   17 1 
    14    2    1 1 
    15    2   17 1 
    16    2    3 1 
    17    5    1 1 
    18    5    7 1 
    19   17   18 1 
    20    3    4 1 
    21   11   10 1 
    22    8    7 1 
    23    7   10 1 
    24    7    9 1 
