@<TRIPOS>MOLECULE
C:\Users\Praveer\PycharmProjects\pdb_to_mol2_converter\data\pdb\bpsip.pdb
   24    24     0     0     0
SMALL
GASTEIGER

@<TRIPOS>ATOM
      1 C2          1.4000   -0.0260    0.1100 C.3       1 BPS1        0.0000
      2 O2          1.5530   -0.5960   -1.1650 O.3       1 BPS1        0.0000
      3 HO2         1.3640   -1.5280   -1.0120 H         1 BPS1        0.0000
      4 C6         -0.4150    1.0940    1.2780 C.3       1 BPS1        0.0000
      5 H61        -0.2360    0.6190    2.2680 H         1 BPS1        0.0000
      6 H62        -1.5140    1.2540    1.2000 H         1 BPS1        0.0000
      7 O6         -0.0170    0.2150    0.2100 O.3       1 BPS1        0.0000
      8 C3          2.1690    1.3020    0.0940 C.3       1 BPS1        0.0000
      9 H3          1.8380    1.8490   -0.8240 H         1 BPS1        0.0000
     10 O3          3.5890    1.1490   -0.0350 O.3       1 BPS1        0.0000
     11 HO3         3.7640    0.5950   -0.8060 H         1 BPS1        0.0000
     12 C4          1.7880    2.1960    1.2610 C.3       1 BPS1        0.0000
     13 H4          2.3060    3.1770    1.1280 H         1 BPS1        0.0000
     14 O4          2.1820    1.6740    2.5290 O.3       1 BPS1        0.0000
     15 HO4         1.8680    2.2910    3.2000 H         1 BPS1        0.0000
     16 C5          0.2930    2.4300    1.2080 C.3       1 BPS1        0.0000
     17 H5          0.0440    2.9140    0.2320 H         1 BPS1        0.0000
     18 O5         -0.1580    3.2790    2.2590 O.3       1 BPS1        0.0000
     19 HO5        -0.8740    3.8440    1.9530 H         1 BPS1        0.0000
     20 C1          1.8180   -1.0440    1.1940 C.3       1 BPS1        0.0000
     21 H1A         1.3120   -0.8400    2.1590 H         1 BPS1        0.0000
     22 H1B         2.9040   -0.8830    1.3850 H         1 BPS1        0.0000
     23 O1          1.6700   -2.4370    0.8460 O.3       1 BPS1        0.0000
     24 HO1         0.8000   -2.7580    1.1090 H         1 BPS1        0.0000
@<TRIPOS>BOND
     1    2    3 1 
     2    2    1 1 
     3    9    8 1 
     4   11   10 1 
     5   10    8 1 
     6    8    1 1 
     7    8   12 1 
     8    1    7 1 
     9    1   20 1 
    10    7    4 1 
    11   17   16 1 
    12   23   24 1 
    13   23   20 1 
    14   13   12 1 
    15   20   22 1 
    16   20   21 1 
    17    6    4 1 
    18   16   12 1 
    19   16    4 1 
    20   16   18 1 
    21   12   14 1 
    22    4    5 1 
    23   19   18 1 
    24   14   15 1 
