@<TRIPOS>MOLECULE
C:\Users\Praveer\PycharmProjects\pdb_to_mol2_converter\data\pdb\bpsp.pdb
   24    25     0     0     0
SMALL
GASTEIGER

@<TRIPOS>ATOM
      1 C1         -0.0780   -0.0270   -0.0100 C.3       1 BPS1        0.0000
      2 H11        -0.7990   -0.6620   -0.5460 H         1 BPS1        0.0000
      3 C2          1.4110   -0.1210   -0.3090 C.3       1 BPS1        0.0000
      4 H21         1.5650   -0.3840   -1.3670 H         1 BPS1        0.0000
      5 H22         1.8900   -0.9080    0.2910 H         1 BPS1        0.0000
      6 C6         -0.4990    0.4970    1.3590 C.3       1 BPS1        0.0000
      7 H61         0.3260    0.6260    2.0450 H         1 BPS1        0.0000
      8 H62        -1.4990    0.2000    1.6390 H         1 BPS1        0.0000
      9 C4          0.7920    2.2600   -0.0850 C.3       1 BPS1        0.0000
     10 H41         0.8850    3.0620    0.6630 H         1 BPS1        0.0000
     11 H42         0.7390    2.7400   -1.0730 H         1 BPS1        0.0000
     12 C5         -0.4510    1.4110    0.1400 C.3       1 BPS1        0.0000
     13 H51        -1.4130    1.7100   -0.2970 H         1 BPS1        0.0000
     14 C3          1.9700    1.2810   -0.0170 C.3       1 BPS1        0.0000
     15 H31         2.7230    1.5750   -0.7780 H         1 BPS1        0.0000
     16 O3'         2.5110    1.3300    1.2930 O.3       1 BPS1        0.0000
     17 P           4.0200    0.7960    1.5480 P.3       1 BPS1        0.0000
     18 O1P         3.9690   -0.6970    1.7760 O.3       1 BPS1        0.0000
     19 O2P         4.9040    1.3640    0.4600 O.2       1 BPS1        0.0000
     20 O5'         4.4690    1.4980    2.9540 O.3       1 BPS1        0.0000
     21 C5'         5.7810    1.2090    3.4340 C.3       1 BPS1        0.0000
     22 H51'        6.5550    1.4590    2.6710 H         1 BPS1        0.0000
     23 H52'        5.8750    0.1330    3.7090 H         1 BPS1        0.0000
     24 H53'        5.9850    1.8200    4.3400 H         1 BPS1        0.0000
@<TRIPOS>BOND
     1    4    3 1 
     2   11    9 1 
     3   15   14 1 
     4    2    1 1 
     5    3   14 1 
     6    3    1 1 
     7    3    5 1 
     8   13   12 1 
     9    9   14 1 
    10    9   12 1 
    11    9   10 1 
    12   14   16 1 
    13    1   12 1 
    14    1    6 1 
    15   12    6 1 
    16   19   17 2 
    17   16   17 1 
    18    6    8 1 
    19    6    7 1 
    20   17   18 1 
    21   17   20 1 
    22   22   21 1 
    23   20   21 1 
    24   21   23 1 
    25   21   24 1 
