@<TRIPOS>MOLECULE
C:\Users\Praveer\PycharmProjects\pdb_to_mol2_converter\data\pdb\bpsu.pdb
   15    15     0     0     0
SMALL
GASTEIGER

@<TRIPOS>ATOM
      1 C5          1.3740    0.0000    0.0040 C.ar      1 BPS1        0.0000
      2 C4          2.0520    1.2860   -0.0040 C.ar      1 BPS1        0.0000
      3 O4          3.2640    1.4650   -0.1030 O.2       1 BPS1        0.0000
      4 N3          1.2430    2.3940    0.1190 N.ar      1 BPS1        0.0000
      5 H3          1.6980    3.2850    0.1240 H         1 BPS1        0.0000
      6 C2         -0.1200    2.3850    0.1770 C.ar      1 BPS1        0.0000
      7 O2         -0.7660    3.4200    0.2730 O.2       1 BPS1        0.0000
      8 N1         -0.7330    1.1510    0.1180 N.ar      1 BPS1        0.0000
      9 H1         -1.7380    1.1940    0.1500 H         1 BPS1        0.0000
     10 C6         -0.0020   -0.0030    0.0130 C.ar      1 BPS1        0.0000
     11 H6         -0.5460   -0.9480   -0.0650 H         1 BPS1        0.0000
     12 CM          2.1580   -1.2630   -0.1970 C.3       1 BPS1        0.0000
     13 HM1         3.1700   -1.1810    0.2610 H         1 BPS1        0.0000
     14 HM2         2.2960   -1.4730   -1.2820 H         1 BPS1        0.0000
     15 HM3         1.6520   -2.1390    0.2650 H         1 BPS1        0.0000
@<TRIPOS>BOND
     1   14   12 1 
     2   12    1 1 
     3   12   13 1 
     4   12   15 1 
     5    3    2 2 
     6   11   10 1 
     7    2    1 ar
     8    2    4 ar
     9    1   10 ar
    10   10    8 ar
    11    8    9 1 
    12    8    6 ar
    13    4    5 1 
    14    4    6 ar
    15    6    7 2 
