@<TRIPOS>MOLECULE
C:\Users\Praveer\PycharmProjects\pdb_to_mol2_converter\data\pdb\bqug.pdb
   39    41     0     0     0
SMALL
GASTEIGER

@<TRIPOS>ATOM
      1 N9          1.4190   -0.1480   -0.0100 N.ar      1 BQU1        0.0000
      2 C8          1.9590    1.1250    0.0910 C.ar      1 BQU1        0.0000
      3 H8          3.0250    1.2800    0.1860 H         1 BQU1        0.0000
      4 C7          0.9360    2.0420    0.0630 C.ar      1 BQU1        0.0000
      5 C5         -0.2860    1.2880   -0.0300 C.ar      1 BQU1        0.0000
      6 C6         -1.6370    1.6720   -0.0430 C.ar      1 BQU1        0.0000
      7 O6         -2.1020    2.8100   -0.0310 O.2       1 BQU1        0.0000
      8 N1         -2.5060    0.5990   -0.0660 N.ar      1 BQU1        0.0000
      9 H1         -3.4810    0.8220   -0.0670 H         1 BQU1        0.0000
     10 C2         -2.1370   -0.7280   -0.0840 C.ar      1 BQU1        0.0000
     11 N2         -3.1120   -1.6310   -0.0790 N.pl3     1 BQU1        0.0000
     12 H21        -4.0760   -1.3920   -0.0460 H         1 BQU1        0.0000
     13 H22        -2.8380   -2.5880   -0.0830 H         1 BQU1        0.0000
     14 N3         -0.8470   -1.0870   -0.0980 N.ar      1 BQU1        0.0000
     15 C4          0.0400   -0.0770   -0.0560 C.ar      1 BQU1        0.0000
     16 C10         0.9610    3.4990    0.3590 C.3       1 BQU1        0.0000
     17 H101        0.9370    3.6720    1.4480 H         1 BQU1        0.0000
     18 H102        0.1120    4.0180   -0.1210 H         1 BQU1        0.0000
     19 N11         2.1900    4.1970   -0.1620 N.4       1 BQU1        0.0000
     20 H111        2.0710    4.4300   -1.1340 H         1 BQU1        0.0000
     21 H112        2.9710    3.5660   -0.1200 H         1 BQU1        0.0000
     22 C12         2.5950    5.4330    0.5850 C.3       1 BQU1        0.0000
     23 H12         2.6870    5.1880    1.6390 H         1 BQU1        0.0000
     24 C15         3.7980    7.3510   -0.0370 C.2       1 BQU1        0.0000
     25 H15         4.6010    8.0380   -0.2760 H         1 BQU1        0.0000
     26 C16         3.8660    5.9770   -0.0010 C.2       1 BQU1        0.0000
     27 H16         4.7460    5.3920   -0.2400 H         1 BQU1        0.0000
     28 C13         1.5960    6.5700    0.3960 C.3       1 BQU1        0.0000
     29 H13         1.1840    6.5430   -0.6310 H         1 BQU1        0.0000
     30 O13         0.4860    6.5140    1.3100 O.3       1 BQU1        0.0000
     31 H13O       -0.2480    7.0710    1.0180 H         1 BQU1        0.0000
     32 C14         2.4720    7.8320    0.5220 C.3       1 BQU1        0.0000
     33 H14         2.0660    8.6570   -0.0870 H         1 BQU1        0.0000
     34 O14         2.6460    8.3010    1.8540 O.3       1 BQU1        0.0000
     35 H14O        1.7870    8.4500    2.2650 H         1 BQU1        0.0000
     36 CM          2.1880   -1.3980   -0.0120 C.3       1 BQU1        0.0000
     37 HM1         3.2860   -1.2230   -0.0060 H         1 BQU1        0.0000
     38 HM2         1.9370   -1.9990   -0.9130 H         1 BQU1        0.0000
     39 HM3         1.9280   -2.0070    0.8810 H         1 BQU1        0.0000
@<TRIPOS>BOND
     1   20   19 1 
     2   38   36 1 
     3   29   28 1 
     4   25   24 1 
     5   27   26 1 
     6   19   21 1 
     7   19   16 1 
     8   19   22 1 
     9   18   16 1 
    10   14   10 ar
    11   14   15 ar
    12   33   32 1 
    13   10   11 1 
    14   10    8 ar
    15   13   11 1 
    16   11   12 1 
    17    9    8 1 
    18    8    6 ar
    19   15    5 ar
    20   15    1 ar
    21    6    7 2 
    22    6    5 ar
    23   24   26 2 
    24   24   32 1 
    25    5    4 ar
    26   36    1 1 
    27   36   37 1 
    28   36   39 1 
    29    1    2 ar
    30   26   22 1 
    31    4    2 ar
    32    4   16 1 
    33    2    3 1 
    34   16   17 1 
    35   28   32 1 
    36   28   22 1 
    37   28   30 1 
    38   32   34 1 
    39   22   23 1 
    40   31   30 1 
    41   34   35 1 
