@<TRIPOS>MOLECULE
C:\Users\Praveer\PycharmProjects\pdb_to_mol2_converter\data\pdb\bqui.pdb
   23    23     0     0     0
SMALL
GASTEIGER

@<TRIPOS>ATOM
      1 C1          1.5210   -1.9170    1.4350 C.3       1 BQU1        0.0000
      2 H1          1.9230   -2.5310    0.5960 H         1 BQU1        0.0000
      3 O1          2.0290   -2.4310    2.6330 O.3       1 BQU1        0.0000
      4 HO1         1.8950   -1.7480    3.2950 H         1 BQU1        0.0000
      5 C5          1.5560   -0.0050    0.0450 C.3       1 BQU1        0.0000
      6 H5          1.9790   -0.6180   -0.7870 H         1 BQU1        0.0000
      7 O5          1.9480   -0.5660    1.3020 O.3       1 BQU1        0.0000
      8 C2          0.0010   -1.9680    1.4370 C.3       1 BQU1        0.0000
      9 H2         -0.3670   -1.3340    2.2790 H         1 BQU1        0.0000
     10 O2         -0.5030   -3.2950    1.6370 O.3       1 BQU1        0.0000
     11 HO2         0.0140   -3.7150    2.3380 H         1 BQU1        0.0000
     12 C3         -0.5210   -1.3810    0.1410 C.3       1 BQU1        0.0000
     13 H3         -0.1700   -2.0290   -0.7000 H         1 BQU1        0.0000
     14 O3         -1.9480   -1.3780    0.1140 O.3       1 BQU1        0.0000
     15 HO3        -2.2350   -2.2550    0.4020 H         1 BQU1        0.0000
     16 C4          0.0370    0.0100   -0.0690 C.3       1 BQU1        0.0000
     17 H4         -0.3610    0.6810    0.7300 H         1 BQU1        0.0000
     18 O4         -0.3670    0.5330   -1.3280 O.3       1 BQU1        0.0000
     19 HO4        -1.3240    0.4110   -1.3880 H         1 BQU1        0.0000
     20 C6          2.1920    1.3950   -0.0220 C.3       1 BQU1        0.0000
     21 H61         1.9450    1.8840   -0.9880 H         1 BQU1        0.0000
     22 H62         3.2960    1.3180    0.0670 H         1 BQU1        0.0000
     23 H63         1.8140    2.0300    0.8050 H         1 BQU1        0.0000
@<TRIPOS>BOND
     1   19   18 1 
     2   18   16 1 
     3   21   20 1 
     4    6    5 1 
     5   13   12 1 
     6   16    5 1 
     7   16   12 1 
     8   16   17 1 
     9   20    5 1 
    10   20   22 1 
    11   20   23 1 
    12    5    7 1 
    13   14   12 1 
    14   14   15 1 
    15   12    8 1 
    16    2    1 1 
    17    7    1 1 
    18    1    8 1 
    19    1    3 1 
    20    8   10 1 
    21    8    9 1 
    22   10   11 1 
    23    3    4 1 
