@<TRIPOS>MOLECULE
C:\Users\Praveer\PycharmProjects\pdb_to_mol2_converter\data\pdb\bquina.pdb
   29    29     0     0     0
SMALL
GASTEIGER

@<TRIPOS>ATOM
      1 C1          1.6020   -2.0670    1.1400 C.3       1 BQU1        0.0000
      2 H1          1.9090   -2.5660    0.1910 H         1 BQU1        0.0000
      3 O1          2.2130   -2.7470    2.1930 O.3       1 BQU1        0.0000
      4 HO1         2.0650   -2.2180    2.9800 H         1 BQU1        0.0000
      5 C5          1.5530   -0.0240   -0.0260 C.3       1 BQU1        0.0000
      6 H5          1.9190   -0.5430   -0.9430 H         1 BQU1        0.0000
      7 O5          2.0220   -0.7110    1.1360 O.3       1 BQU1        0.0000
      8 C2          0.0970   -2.1320    1.3010 C.3       1 BQU1        0.0000
      9 H2         -0.1590   -1.5550    2.2270 H         1 BQU1        0.0000
     10 N          -0.3660   -3.5050    1.4920 N.am      1 BQU1        0.0000
     11 HN          0.2900   -4.2230    1.2840 H         1 BQU1        0.0000
     12 C          -1.5430   -3.8360    2.0330 C.2       1 BQU1        0.0000
     13 O          -2.3690   -2.9930    2.3560 O.2       1 BQU1        0.0000
     14 CT         -1.8080   -5.3050    2.2240 C.3       1 BQU1        0.0000
     15 HT1        -0.9900   -5.7660    2.8140 H         1 BQU1        0.0000
     16 HT2        -1.8850   -5.8060    1.2370 H         1 BQU1        0.0000
     17 HT3        -2.7660   -5.4340    2.7700 H         1 BQU1        0.0000
     18 C3         -0.5320   -1.4120    0.1190 C.3       1 BQU1        0.0000
     19 H3         -0.2870   -1.9900   -0.8050 H         1 BQU1        0.0000
     20 O3         -1.9520   -1.3590    0.2210 O.3       1 BQU1        0.0000
     21 HO3        -2.2410   -1.8700    1.0010 H         1 BQU1        0.0000
     22 C4          0.0320   -0.0100   -0.0280 C.3       1 BQU1        0.0000
     23 H4         -0.3020    0.5990    0.8480 H         1 BQU1        0.0000
     24 O4         -0.4590    0.6110   -1.2090 O.3       1 BQU1        0.0000
     25 HO4        -1.4160    0.4800   -1.2140 H         1 BQU1        0.0000
     26 C6          2.1810    1.3800    0.0130 C.3       1 BQU1        0.0000
     27 H61         1.8700    1.9660   -0.8770 H         1 BQU1        0.0000
     28 H62         3.2890    1.3040    0.0230 H         1 BQU1        0.0000
     29 H63         1.8560    1.9210    0.9260 H         1 BQU1        0.0000
@<TRIPOS>BOND
     1   25   24 1 
     2   24   22 1 
     3    6    5 1 
     4   27   26 1 
     5   19   18 1 
     6   22    5 1 
     7   22   18 1 
     8   22   23 1 
     9    5   26 1 
    10    5    7 1 
    11   26   28 1 
    12   26   29 1 
    13   18   20 1 
    14   18    8 1 
    15    2    1 1 
    16   20   21 1 
    17    7    1 1 
    18    1    8 1 
    19    1    3 1 
    20   16   14 1 
    21   11   10 1 
    22    8   10 1 
    23    8    9 1 
    24   10   12 am
    25   12   14 1 
    26   12   13 2 
    27    3    4 1 
    28   14   17 1 
    29   14   15 1 
