@<TRIPOS>MOLECULE
C:\Users\Praveer\PycharmProjects\pdb_to_mol2_converter\data\pdb\br2c.pdb
   38    38     0     0     0
SMALL
GASTEIGER

@<TRIPOS>ATOM
      1 N1          1.4470    0.0260    0.0190 N.pl3     1 BR21        0.0000
      2 C2          2.1570    1.2130   -0.0190 C.3       1 BR21        0.0000
      3 N2          3.4980    1.2380   -0.0540 N.3       1 BR21        0.0000
      4 H2          3.9200    0.3350   -0.0670 H         1 BR21        0.0000
      5 N3          1.4420    2.3790   -0.0180 N.pl3     1 BR21        0.0000
      6 H3          1.8800    3.2620   -0.0710 H         1 BR21        0.0000
      7 C4          0.0450    2.4780    0.0290 C.2       1 BR21        0.0000
      8 N4         -0.4560    3.6710    0.0390 N.2       1 BR21        0.0000
      9 H4         -1.4530    3.6370    0.0720 H         1 BR21        0.0000
     10 C5         -0.6520    1.2300    0.0640 C.2       1 BR21        0.0000
     11 H5         -1.7290    1.2450    0.0940 H         1 BR21        0.0000
     12 C6          0.0440    0.0300    0.0570 C.2       1 BR21        0.0000
     13 H6         -0.4380   -0.9410    0.0800 H         1 BR21        0.0000
     14 C7          4.3010    2.4650   -0.1100 C.3       1 BR21        0.0000
     15 H71         3.8740    3.2020   -0.8150 H         1 BR21        0.0000
     16 H72         5.3080    2.2260   -0.4980 H         1 BR21        0.0000
     17 CB          4.4350    3.0720    1.3030 C.3       1 BR21        0.0000
     18 HB1         4.9300    2.3380    1.9770 H         1 BR21        0.0000
     19 HB2         3.4260    3.2890    1.7200 H         1 BR21        0.0000
     20 CG          5.2580    4.3820    1.2780 C.3       1 BR21        0.0000
     21 HG1         4.7840    5.0950    0.5660 H         1 BR21        0.0000
     22 HG2         6.2880    4.1700    0.9140 H         1 BR21        0.0000
     23 CD          5.3250    5.0380    2.6720 C.3       1 BR21        0.0000
     24 HD1         5.7730    4.3520    3.4120 H         1 BR21        0.0000
     25 HD2         4.2970    5.2380    3.0290 H         1 BR21        0.0000
     26 NE          6.0460    6.3120    2.5640 N.pl3     1 BR21        0.0000
     27 HE          5.5280    7.1320    2.3450 H         1 BR21        0.0000
     28 CZ          7.3690    6.4820    2.7320 C.cat     1 BR21        0.0000
     29 NH1         7.8910    7.7000    2.5720 N.pl3     1 BR21        0.0000
     30 H11         7.3040    8.4640    2.3370 H         1 BR21        0.0000
     31 H12         8.8670    7.8350    2.6930 H         1 BR21        0.0000
     32 NH2         8.1790    5.4780    3.0550 N.pl3     1 BR21        0.0000
     33 H21         7.7860    4.5850    3.2220 H         1 BR21        0.0000
     34 H22         9.1440    5.6520    3.2040 H         1 BR21        0.0000
     35 CM          2.1490   -1.2790    0.0070 C.3       1 BR21        0.0000
     36 HM1         2.8110   -1.3990    0.8960 H         1 BR21        0.0000
     37 HM2         2.7600   -1.4090   -0.9150 H         1 BR21        0.0000
     38 HM3         1.4370   -2.1380    0.0320 H         1 BR21        0.0000
@<TRIPOS>BOND
     1   37   35 1 
     2   15   14 1 
     3   16   14 1 
     4   14    3 1 
     5   14   17 1 
     6    6    5 1 
     7    4    3 1 
     8    3    2 1 
     9    2    5 1 
    10    2    1 1 
    11    5    7 1 
    12   35    1 1 
    13   35   38 1 
    14   35   36 1 
    15    1   12 1 
    16    7    8 2 
    17    7   10 1 
    18    8    9 1 
    19   12   10 2 
    20   12   13 1 
    21   10   11 1 
    22   21   20 1 
    23   22   20 1 
    24   20   17 1 
    25   20   23 1 
    26   17   19 1 
    27   17   18 1 
    28   30   29 1 
    29   27   26 1 
    30   26   23 1 
    31   26   28 1 
    32   29   31 1 
    33   29   28 2 
    34   23   25 1 
    35   23   24 1 
    36   28   32 1 
    37   32   34 1 
    38   32   33 1 
