@<TRIPOS>MOLECULE
C:\Users\Praveer\PycharmProjects\pdb_to_mol2_converter\data\pdb\brcg.pdb
   26    27     0     0     0
SMALL
GASTEIGER

@<TRIPOS>ATOM
      1 N9          1.3820   -0.0000    0.0020 N.ar      1 BRC1        0.0000
      2 C4          1.8650    1.2920    0.0020 C.ar      1 BRC1        0.0000
      3 C5          0.7410    2.1330   -0.0020 C.ar      1 BRC1        0.0000
      4 C6          0.9400    3.5230   -0.0240 C.ar      1 BRC1        0.0000
      5 O6          0.0810    4.4010   -0.0450 O.2       1 BRC1        0.0000
      6 N1          2.2700    3.8920   -0.0290 N.ar      1 BRC1        0.0000
      7 H1          2.4620    4.8750   -0.0380 H         1 BRC1        0.0000
      8 C2          3.3390    3.0240   -0.0160 C.ar      1 BRC1        0.0000
      9 N2          4.5570    3.5550   -0.0220 N.pl3     1 BRC1        0.0000
     10 H21         4.7270    4.5330   -0.0340 H         1 BRC1        0.0000
     11 H22         5.3250    2.9200   -0.0170 H         1 BRC1        0.0000
     12 N3          3.1460    1.7000   -0.0040 N.ar      1 BRC1        0.0000
     13 C7         -0.4530    1.3080    0.0170 C.ar      1 BRC1        0.0000
     14 C8         -0.0040    0.0010   -0.0010 C.ar      1 BRC1        0.0000
     15 H8         -0.5340   -0.9440   -0.0260 H         1 BRC1        0.0000
     16 C10        -1.8560    1.7260    0.0400 C.2       1 BRC1        0.0000
     17 N11        -2.7960    0.9050    0.4970 N.pl3     1 BRC1        0.0000
     18 H111       -2.5480    0.0100    0.8650 H         1 BRC1        0.0000
     19 H112       -3.7510    1.1980    0.5120 H         1 BRC1        0.0000
     20 N12        -2.1930    2.9290   -0.4020 N.2       1 BRC1        0.0000
     21 H121       -3.1390    3.2440   -0.3770 H         1 BRC1        0.0000
     22 H122       -1.4600    3.5940   -0.5970 H         1 BRC1        0.0000
     23 CM          2.2170   -1.2030   -0.0050 C.3       1 BRC1        0.0000
     24 HM1         2.8800   -1.2100    0.8880 H         1 BRC1        0.0000
     25 HM2         2.8680   -1.2080   -0.9060 H         1 BRC1        0.0000
     26 HM3         1.6220   -2.1420   -0.0020 H         1 BRC1        0.0000
@<TRIPOS>BOND
     1   25   23 1 
     2   22   20 1 
     3   20   21 1 
     4   20   16 2 
     5    5    4 2 
     6    7    6 1 
     7   10    9 1 
     8    6    4 ar
     9    6    8 ar
    10   15   14 1 
    11    4    3 ar
    12    9   11 1 
    13    9    8 1 
    14    8   12 ar
    15   23   26 1 
    16   23    1 1 
    17   23   24 1 
    18   12    2 ar
    19    3    2 ar
    20    3   13 ar
    21   14    1 ar
    22   14   13 ar
    23    1    2 ar
    24   13   16 1 
    25   16   17 1 
    26   17   19 1 
    27   17   18 1 
