@<TRIPOS>MOLECULE
C:\Users\Praveer\PycharmProjects\pdb_to_mol2_converter\data\pdb\bret.pdb
    8     7     0     0     0
SMALL
GASTEIGER

@<TRIPOS>ATOM
      1 C1          1.9660    0.0010    0.0010 C.3       1 BRE1        0.0000
      2 BR11        0.0000   -0.0090    0.0000 Br        1 BRE1        0.0000
      3 H12         2.2860   -0.5560   -0.9070 H         1 BRE1        0.0000
      4 H13         2.2850   -0.5570    0.9080 H         1 BRE1        0.0000
      5 C2          2.5150    1.4290    0.0020 C.3       1 BRE1        0.0000
      6 H21         2.1670    1.9800    0.9020 H         1 BRE1        0.0000
      7 H22         2.1670    1.9810   -0.8990 H         1 BRE1        0.0000
      8 H23         3.6260    1.4240    0.0020 H         1 BRE1        0.0000
@<TRIPOS>BOND
     1    3    1 1 
     2    7    5 1 
     3    2    1 1 
     4    1    5 1 
     5    1    4 1 
     6    5    8 1 
     7    5    6 1 
