@<TRIPOS>MOLECULE
C:\Users\Praveer\PycharmProjects\pdb_to_mol2_converter\data\pdb\brhmna.pdb
   29    29     0     0     0
SMALL
GASTEIGER

@<TRIPOS>ATOM
      1 C1          1.4910   -0.0360   -0.1010 C.3       1 BRH1        0.0000
      2 H1          1.7670   -0.5340   -1.0590 H         1 BRH1        0.0000
      3 O1          2.0280   -0.7550    0.9660 O.3       1 BRH1        0.0000
      4 HO1         1.6160   -1.6250    0.9550 H         1 BRH1        0.0000
      5 C5         -0.5570    0.6970   -1.0530 C.3       1 BRH1        0.0000
      6 H5         -0.3330    0.1330   -1.9900 H         1 BRH1        0.0000
      7 O5          0.0760    0.0410    0.0540 O.3       1 BRH1        0.0000
      8 C2          2.0210    1.3800   -0.0360 C.3       1 BRH1        0.0000
      9 H2          3.1350    1.3240   -0.1380 H         1 BRH1        0.0000
     10 N           1.7300    1.9990    1.2520 N.am      1 BRH1        0.0000
     11 HN          1.1160    1.4690    1.8300 H         1 BRH1        0.0000
     12 C           2.3150    3.1010    1.7310 C.2       1 BRH1        0.0000
     13 O           3.0800    3.7790    1.0630 O.2       1 BRH1        0.0000
     14 CT          1.9800    3.4700    3.1520 C.3       1 BRH1        0.0000
     15 HT1         2.1110    2.5900    3.8140 H         1 BRH1        0.0000
     16 HT2         0.9330    3.8320    3.2130 H         1 BRH1        0.0000
     17 HT3         2.6660    4.2780    3.4840 H         1 BRH1        0.0000
     18 C3          1.4740    2.1020   -1.2500 C.3       1 BRH1        0.0000
     19 H3          1.7740    1.5270   -2.1610 H         1 BRH1        0.0000
     20 O3          2.0350    3.4010   -1.4090 O.3       1 BRH1        0.0000
     21 HO3         2.4370    3.6790   -0.5640 H         1 BRH1        0.0000
     22 C4         -0.0380    2.1230   -1.2040 C.3       1 BRH1        0.0000
     23 H4         -0.3720    2.7180   -0.3220 H         1 BRH1        0.0000
     24 O4         -0.5720    2.7320   -2.3730 O.3       1 BRH1        0.0000
     25 HO4        -0.0190    3.5030   -2.5560 H         1 BRH1        0.0000
     26 C6         -2.0730    0.6140   -0.8020 C.3       1 BRH1        0.0000
     27 H61        -2.3860   -0.4460   -0.6950 H         1 BRH1        0.0000
     28 H62        -2.6310    1.0670   -1.6500 H         1 BRH1        0.0000
     29 H63        -2.3410    1.1570    0.1280 H         1 BRH1        0.0000
@<TRIPOS>BOND
     1   25   24 1 
     2   24   22 1 
     3   19   18 1 
     4    6    5 1 
     5   28   26 1 
     6   20   18 1 
     7   20   21 1 
     8   18   22 1 
     9   18    8 1 
    10   22    5 1 
    11   22   23 1 
    12    2    1 1 
    13    5   26 1 
    14    5    7 1 
    15   26   27 1 
    16   26   29 1 
    17    9    8 1 
    18    1    8 1 
    19    1    7 1 
    20    1    3 1 
    21    8   10 1 
    22    4    3 1 
    23   13   12 2 
    24   10   12 am
    25   10   11 1 
    26   12   14 1 
    27   14   16 1 
    28   14   17 1 
    29   14   15 1 
