@<TRIPOS>MOLECULE
C:\Users\Praveer\PycharmProjects\pdb_to_mol2_converter\data\pdb\brhm.pdb
   23    23     0     0     0
SMALL
GASTEIGER

@<TRIPOS>ATOM
      1 C1          1.2900   -0.0680    0.0530 C.3       1 BRH1        0.0000
      2 H1          1.7560   -0.6580   -0.7690 H         1 BRH1        0.0000
      3 O1          1.6610   -0.6510    1.2650 O.3       1 BRH1        0.0000
      4 HO1         1.2890   -0.0560    1.9260 H         1 BRH1        0.0000
      5 C5         -0.5570    0.4200   -1.3460 C.3       1 BRH1        0.0000
      6 H5         -0.1050   -0.1900   -2.1630 H         1 BRH1        0.0000
      7 O5         -0.1300   -0.0940   -0.0820 O.3       1 BRH1        0.0000
      8 C2          1.7870    1.3740    0.0140 C.3       1 BRH1        0.0000
      9 H2          2.9020    1.3530    0.0630 H         1 BRH1        0.0000
     10 O2          1.3290    2.1760    1.1120 O.3       1 BRH1        0.0000
     11 HO2         1.5670    3.0900    0.9060 H         1 BRH1        0.0000
     12 C3          1.3840    1.9880   -1.3110 C.3       1 BRH1        0.0000
     13 H3          1.8800    1.4070   -2.1270 H         1 BRH1        0.0000
     14 O3          1.8260    3.3410   -1.4230 O.3       1 BRH1        0.0000
     15 HO3         1.4810    3.6840   -2.2570 H         1 BRH1        0.0000
     16 C4         -0.1170    1.8720   -1.5000 C.3       1 BRH1        0.0000
     17 H4         -0.6180    2.4710   -0.7010 H         1 BRH1        0.0000
     18 O4         -0.5170    2.3890   -2.7680 O.3       1 BRH1        0.0000
     19 HO4        -1.4140    2.7350   -2.7060 H         1 BRH1        0.0000
     20 C6         -2.0830    0.2310   -1.3910 C.3       1 BRH1        0.0000
     21 H61        -2.3340   -0.8410   -1.2400 H         1 BRH1        0.0000
     22 H62        -2.4940    0.5540   -2.3690 H         1 BRH1        0.0000
     23 H63        -2.5660    0.8170   -0.5800 H         1 BRH1        0.0000
@<TRIPOS>BOND
     1   18   19 1 
     2   18   16 1 
     3   22   20 1 
     4   15   14 1 
     5    6    5 1 
     6   13   12 1 
     7   16    5 1 
     8   16   12 1 
     9   16   17 1 
    10   14   12 1 
    11   20    5 1 
    12   20   21 1 
    13   20   23 1 
    14    5    7 1 
    15   12    8 1 
    16    2    1 1 
    17    7    1 1 
    18    8    1 1 
    19    8    9 1 
    20    8   10 1 
    21    1    3 1 
    22   11   10 1 
    23    3    4 1 
