@<TRIPOS>MOLECULE
C:\Users\Praveer\PycharmProjects\pdb_to_mol2_converter\data\pdb\brib.pdb
   20    20     0     0     0
SMALL
GASTEIGER

@<TRIPOS>ATOM
      1 O4          1.3870    0.0070    0.0020 O.3       1 BRI1        0.0000
      2 C1          1.8420    1.3520   -0.0200 C.3       1 BRI1        0.0000
      3 H1          1.7060    1.7770    1.0010 H         1 BRI1        0.0000
      4 O1          3.1860    1.3910   -0.3820 O.3       1 BRI1        0.0000
      5 HO1         3.3030    0.7180   -1.0540 H         1 BRI1        0.0000
      6 C4         -0.0400    0.0560    0.0020 C.3       1 BRI1        0.0000
      7 H4         -0.3430    0.3260    1.0400 H         1 BRI1        0.0000
      8 C5         -0.5800   -1.2960   -0.3740 C.3       1 BRI1        0.0000
      9 H51        -0.1820   -2.0760    0.3150 H         1 BRI1        0.0000
     10 H52        -0.2520   -1.5590   -1.4070 H         1 BRI1        0.0000
     11 O5         -2.0090   -1.2960   -0.3260 O.3       1 BRI1        0.0000
     12 HO5        -2.3160   -1.5050    0.5640 H         1 BRI1        0.0000
     13 C2          0.9090    2.0360   -1.0440 C.3       1 BRI1        0.0000
     14 H2          1.3490    1.9500   -2.0620 H         1 BRI1        0.0000
     15 O2          0.6880    3.4050   -0.7780 O.3       1 BRI1        0.0000
     16 HO2        -0.2430    3.4760   -0.5200 H         1 BRI1        0.0000
     17 C3         -0.3850    1.1660   -0.9920 C.3       1 BRI1        0.0000
     18 H3         -0.5720    0.7440   -2.0040 H         1 BRI1        0.0000
     19 O3         -1.5420    1.8520   -0.5580 O.3       1 BRI1        0.0000
     20 HO3        -2.3030    1.2670   -0.6740 H         1 BRI1        0.0000
@<TRIPOS>BOND
     1   14   13 1 
     2   18   17 1 
     3   10    8 1 
     4    5    4 1 
     5   13   17 1 
     6   13   15 1 
     7   13    2 1 
     8   17   19 1 
     9   17    6 1 
    10   15   16 1 
    11   20   19 1 
    12    4    2 1 
    13    8   11 1 
    14    8    6 1 
    15    8    9 1 
    16   11   12 1 
    17    2    1 1 
    18    2    3 1 
    19    1    6 1 
    20    6    7 1 
