@<TRIPOS>MOLECULE
C:\Users\Praveer\PycharmProjects\pdb_to_mol2_converter\data\pdb\bribp.pdb
   20    20     0     0     0
SMALL
GASTEIGER

@<TRIPOS>ATOM
      1 C1          1.3690   -0.0390   -0.1090 C.3       1 BRI1        0.0000
      2 H1          1.8150   -0.6590    0.7020 H         1 BRI1        0.0000
      3 O1          1.6810   -0.6300   -1.3350 O.3       1 BRI1        0.0000
      4 HO1         1.1070   -0.1780   -1.9590 H         1 BRI1        0.0000
      5 C5         -0.4500    0.5120    1.2930 C.3       1 BRI1        0.0000
      6 H51        -0.0560   -0.1330    2.1100 H         1 BRI1        0.0000
      7 H52        -1.5620    0.4950    1.3560 H         1 BRI1        0.0000
      8 O5         -0.0520   -0.0220    0.0240 O.3       1 BRI1        0.0000
      9 C2          1.9330    1.3810   -0.0510 C.3       1 BRI1        0.0000
     10 H2          3.0470    1.3050   -0.0930 H         1 BRI1        0.0000
     11 O2          1.5300    2.2300   -1.1350 O.3       1 BRI1        0.0000
     12 HO2         2.1570    2.1540   -1.8620 H         1 BRI1        0.0000
     13 C3          1.5480    2.0150    1.2650 C.3       1 BRI1        0.0000
     14 H3          1.8340    3.0960    1.2430 H         1 BRI1        0.0000
     15 O3          2.2670    1.4060    2.3410 O.3       1 BRI1        0.0000
     16 HO3         2.8480    2.0540    2.7560 H         1 BRI1        0.0000
     17 C4          0.0440    1.9380    1.4600 C.3       1 BRI1        0.0000
     18 H4         -0.4450    2.5630    0.6750 H         1 BRI1        0.0000
     19 O4         -0.3600    2.4400    2.7270 O.3       1 BRI1        0.0000
     20 HO4         0.1640    1.9890    3.3980 H         1 BRI1        0.0000
@<TRIPOS>BOND
     1    4    3 1 
     2   12   11 1 
     3    3    1 1 
     4   11    9 1 
     5    1    9 1 
     6    1    8 1 
     7    1    2 1 
     8   10    9 1 
     9    9   13 1 
    10    8    5 1 
    11   18   17 1 
    12   14   13 1 
    13   13   17 1 
    14   13   15 1 
    15    5    7 1 
    16    5   17 1 
    17    5    6 1 
    18   17   19 1 
    19   15   16 1 
    20   19   20 1 
