@<TRIPOS>MOLECULE
C:\Users\Praveer\PycharmProjects\pdb_to_mol2_converter\data\pdb\bsam.pdb
   17    17     0     0     0
SMALL
GASTEIGER

@<TRIPOS>ATOM
      1 CG         -0.0050   -0.0120    0.0110 C.ar      1 BSA1        0.0000
      2 HG         -0.5400   -0.9510    0.0160 H         1 BSA1        0.0000
      3 CD1         1.3950   -0.0060    0.0030 C.ar      1 BSA1        0.0000
      4 HD1         1.9390   -0.9400    0.0030 H         1 BSA1        0.0000
      5 CE1         2.0890    1.2110   -0.0070 C.ar      1 BSA1        0.0000
      6 HE1         3.1700    1.2050   -0.0190 H         1 BSA1        0.0000
      7 CD2        -0.7120    1.1960    0.0070 C.ar      1 BSA1        0.0000
      8 HD2        -1.7940    1.1880    0.0090 H         1 BSA1        0.0000
      9 CE2        -0.0190    2.4130   -0.0030 C.ar      1 BSA1        0.0000
     10 HE2        -0.5750    3.3400   -0.0120 H         1 BSA1        0.0000
     11 CZ          1.3920    2.4380   -0.0160 C.ar      1 BSA1        0.0000
     12 S1          2.2770    3.9850    0.0190 S.O2      1 BSA1        0.0000
     13 O11         1.3730    4.9590   -0.5260 O.2       1 BSA1        0.0000
     14 O12         3.5610    3.7080   -0.5610 O.2       1 BSA1        0.0000
     15 N2          2.4710    4.2800    1.6340 N.3       1 BSA1        0.0000
     16 H21         3.0700    3.6060    2.0990 H         1 BSA1        0.0000
     17 H22         1.5980    4.4470    2.1220 H         1 BSA1        0.0000
@<TRIPOS>BOND
     1   14   12 2 
     2   13   12 2 
     3    6    5 1 
     4   11    5 ar
     5   11    9 ar
     6   11   12 1 
     7   10    9 1 
     8    5    3 ar
     9    9    7 ar
    10    3    4 1 
    11    3    1 ar
    12    7    8 1 
    13    7    1 ar
    14    1    2 1 
    15   12   15 1 
    16   15   16 1 
    17   15   17 1 
