@<TRIPOS>MOLECULE
C:\Users\Praveer\PycharmProjects\pdb_to_mol2_converter\data\pdb\bsat.pdb
   15    15     0     0     0
SMALL
GASTEIGER

@<TRIPOS>ATOM
      1 S           1.4120   -0.1340   -0.0000 S.3       1 BSA1        0.0000
      2 O1         -0.0390   -0.1460   -0.0040 O.3       1 BSA1        0.0000
      3 O2          2.0070   -0.6620   -1.2160 O.3       1 BSA1        0.0000
      4 O3          1.9990   -0.6580    1.2200 O.3       1 BSA1        0.0000
      5 CA1         1.8450    1.6450    0.0000 C.ar      1 BSA1        0.0000
      6 CA2         1.9700    2.3690    1.2130 C.ar      1 BSA1        0.0000
      7 HA2         1.8210    1.8530    2.1540 H         1 BSA1        0.0000
      8 CA3         2.2890    3.7300    1.2150 C.ar      1 BSA1        0.0000
      9 HA3         2.3810    4.2600    2.1510 H         1 BSA1        0.0000
     10 CA4         2.4900    4.4040    0.0060 C.ar      1 BSA1        0.0000
     11 HA4         2.7360    5.4550    0.0080 H         1 BSA1        0.0000
     12 CA5         2.3720    3.7160   -1.2060 C.ar      1 BSA1        0.0000
     13 HA5         2.5270    4.2350   -2.1390 H         1 BSA1        0.0000
     14 CA6         2.0520    2.3540   -1.2100 C.ar      1 BSA1        0.0000
     15 HA6         1.9670    1.8280   -2.1520 H         1 BSA1        0.0000
@<TRIPOS>BOND
     1   15   14 1 
     2   13   12 1 
     3    3    1 1 
     4   14   12 ar
     5   14    5 ar
     6   12   10 ar
     7    2    1 1 
     8    1    5 1 
     9    1    4 1 
    10    5    6 ar
    11   10   11 1 
    12   10    8 ar
    13    6    8 ar
    14    6    7 1 
    15    8    9 1 
