@<TRIPOS>MOLECULE
C:\Users\Praveer\PycharmProjects\pdb_to_mol2_converter\data\pdb\bsau.pdb
   21    21     0     0     0
SMALL
GASTEIGER

@<TRIPOS>ATOM
      1 N1          1.3680    0.0030   -0.0010 N.ar      1 BSA1        0.0000
      2 C2          2.1130    1.2090    0.0060 C.ar      1 BSA1        0.0000
      3 S2          3.7590    1.3490    0.0070 S.2       1 BSA1        0.0000
      4 N3          1.3190    2.3430    0.0120 N.ar      1 BSA1        0.0000
      5 H3          1.7950    3.2300    0.0190 H         1 BSA1        0.0000
      6 C4         -0.0550    2.4130    0.0110 C.ar      1 BSA1        0.0000
      7 O4         -0.5870    3.5190    0.0230 O.2       1 BSA1        0.0000
      8 C5         -0.7600    1.1600   -0.0020 C.ar      1 BSA1        0.0000
      9 C6         -0.0010    0.0040   -0.0050 C.ar      1 BSA1        0.0000
     10 H6         -0.4420   -0.9920   -0.0060 H         1 BSA1        0.0000
     11 C7         -2.2400    1.3600   -0.0010 C.3       1 BSA1        0.0000
     12 H71        -2.5120    1.9730   -0.8790 H         1 BSA1        0.0000
     13 H72        -2.5200    1.8980    0.9210 H         1 BSA1        0.0000
     14 N8         -3.0420    0.1060   -0.0630 N.4       1 BSA1        0.0000
     15 H81        -2.8720   -0.4850    0.7750 H         1 BSA1        0.0000
     16 H82        -2.8340   -0.4230   -0.9340 H         1 BSA1        0.0000
     17 H83        -4.0520    0.3660   -0.0760 H         1 BSA1        0.0000
     18 CM          2.1100   -1.2700   -0.0060 C.3       1 BSA1        0.0000
     19 HM1         2.7690   -1.3560    0.8910 H         1 BSA1        0.0000
     20 HM2         2.7680   -1.3490   -0.9040 H         1 BSA1        0.0000
     21 HM3         1.4500   -2.1660   -0.0080 H         1 BSA1        0.0000
@<TRIPOS>BOND
     1   16   14 1 
     2   20   18 1 
     3   12   11 1 
     4   17   14 1 
     5   14   11 1 
     6   14   15 1 
     7   21   18 1 
     8   10    9 1 
     9   18    1 1 
    10   18   19 1 
    11    9    8 ar
    12    9    1 ar
    13    8   11 1 
    14    8    6 ar
    15    1    2 ar
    16   11   13 1 
    17    2    3 2 
    18    2    4 ar
    19    6    4 ar
    20    6    7 2 
    21    4    5 1 
