@<TRIPOS>MOLECULE
C:\Users\Praveer\PycharmProjects\pdb_to_mol2_converter\data\pdb\bscu.pdb
   26    26     0     0     0
SMALL
GASTEIGER

@<TRIPOS>ATOM
      1 N1          1.3620    0.0080    0.0010 N.ar      1 BSC1        0.0000
      2 C2          2.1090    1.2130   -0.0070 C.ar      1 BSC1        0.0000
      3 S2          3.7560    1.3490    0.0040 S.2       1 BSC1        0.0000
      4 N3          1.3200    2.3520   -0.0320 N.ar      1 BSC1        0.0000
      5 H3          1.8010    3.2360   -0.0580 H         1 BSC1        0.0000
      6 C4         -0.0550    2.4250   -0.0570 C.ar      1 BSC1        0.0000
      7 O4         -0.5860    3.5280   -0.1710 O.2       1 BSC1        0.0000
      8 C5         -0.7580    1.1700    0.0110 C.ar      1 BSC1        0.0000
      9 C6         -0.0100    0.0150    0.0110 C.ar      1 BSC1        0.0000
     10 H6         -0.4950   -0.9640   -0.0140 H         1 BSC1        0.0000
     11 C7         -2.2340    1.2020   -0.0070 C.3       1 BSC1        0.0000
     12 H71        -2.6440    1.9370    0.7060 H         1 BSC1        0.0000
     13 H72        -2.6570    0.1920    0.1350 H         1 BSC1        0.0000
     14 N8         -2.6210    1.6410   -1.3800 N.4       1 BSC1        0.0000
     15 H81        -2.0180    1.1550   -2.0390 H         1 BSC1        0.0000
     16 H82        -2.4510    2.6260   -1.5060 H         1 BSC1        0.0000
     17 C9         -4.0300    1.2340   -1.8040 C.3       1 BSC1        0.0000
     18 H91        -4.3140    1.9130   -2.6180 H         1 BSC1        0.0000
     19 H92        -4.6730    1.3520   -0.9250 H         1 BSC1        0.0000
     20 C10        -4.0370   -0.2190   -2.3090 C.2       1 BSC1        0.0000
     21 O11        -5.1660   -0.6490   -2.6360 O.co2     1 BSC1        0.0000
     22 O12        -2.9280   -0.8210   -2.3450 O.co2     1 BSC1        0.0000
     23 CM          2.0980   -1.2690    0.0140 C.3       1 BSC1        0.0000
     24 HM1         2.7430   -1.3550    0.9200 H         1 BSC1        0.0000
     25 HM2         2.7610   -1.3620   -0.8780 H         1 BSC1        0.0000
     26 HM3         1.4240   -2.1550    0.0090 H         1 BSC1        0.0000
@<TRIPOS>BOND
     1   21   20 ar
     2   18   17 1 
     3   22   20 ar
     4   20   17 1 
     5   15   14 1 
     6   17   14 1 
     7   17   19 1 
     8   16   14 1 
     9   14   11 1 
    10   25   23 1 
    11    7    6 2 
    12    5    4 1 
    13    6    4 ar
    14    6    8 ar
    15    4    2 ar
    16   10    9 1 
    17    2    1 ar
    18    2    3 2 
    19   11    8 1 
    20   11   13 1 
    21   11   12 1 
    22    1    9 ar
    23    1   23 1 
    24   26   23 1 
    25    8    9 ar
    26   23   24 1 
