@<TRIPOS>MOLECULE
C:\Users\Praveer\PycharmProjects\pdb_to_mol2_converter\data\pdb\bseu.pdb
   24    24     0     0     0
SMALL
GASTEIGER

@<TRIPOS>ATOM
      1 N1          1.4180   -0.0120   -0.0450 N.pl3     1 BSE1        0.0000
      2 C2          2.1340    1.2110   -0.0210 C.3       1 BSE1        0.0000
      3 SE2         3.9610    1.4050   -0.2340 Se        1 BSE1        0.0000
      4 N3          1.3250    2.3200    0.1830 N.am      1 BSE1        0.0000
      5 H3          1.7800    3.2200    0.1910 H         1 BSE1        0.0000
      6 C4         -0.0390    2.3450    0.3620 C.2       1 BSE1        0.0000
      7 O4         -0.5860    3.4220    0.5860 O.2       1 BSE1        0.0000
      8 C5         -0.7130    1.0710    0.3270 C.2       1 BSE1        0.0000
      9 C6          0.0570   -0.0510    0.1100 C.2       1 BSE1        0.0000
     10 H6         -0.3870   -1.0440    0.0270 H         1 BSE1        0.0000
     11 C          -2.1860    1.0770    0.4650 C.3       1 BSE1        0.0000
     12 HC1        -2.6010    0.0550    0.5180 H         1 BSE1        0.0000
     13 HC2        -2.6500    1.6780   -0.3390 H         1 BSE1        0.0000
     14 N          -2.5140    1.7510    1.7630 N.4       1 BSE1        0.0000
     15 HN1        -2.0830    2.6750    1.7100 H         1 BSE1        0.0000
     16 HN2        -2.0250    1.2920    2.5190 H         1 BSE1        0.0000
     17 CA         -3.9760    1.8890    2.0880 C.3       1 BSE1        0.0000
     18 HA1        -4.4020    0.8650    2.1470 H         1 BSE1        0.0000
     19 HA2        -4.4420    2.4810    1.2720 H         1 BSE1        0.0000
     20 HA3        -4.0480    2.4180    3.0630 H         1 BSE1        0.0000
     21 CM          2.1730   -1.2590   -0.2560 C.3       1 BSE1        0.0000
     22 HM1         2.9330   -1.4130    0.5470 H         1 BSE1        0.0000
     23 HM2         2.7170   -1.2450   -1.2290 H         1 BSE1        0.0000
     24 HM3         1.5260   -2.1650   -0.2620 H         1 BSE1        0.0000
@<TRIPOS>BOND
     1   23   21 1 
     2   13   11 1 
     3   24   21 1 
     4   21    1 1 
     5   21   22 1 
     6    3    2 1 
     7    1    2 1 
     8    1    9 1 
     9    2    4 1 
    10   10    9 1 
    11    9    8 2 
    12    4    5 1 
    13    4    6 am
    14    8    6 1 
    15    8   11 1 
    16    6    7 2 
    17   11   12 1 
    18   11   14 1 
    19   19   17 1 
    20   15   14 1 
    21   14   17 1 
    22   14   16 1 
    23   17   18 1 
    24   17   20 1 
