@<TRIPOS>MOLECULE
C:\Users\Praveer\PycharmProjects\pdb_to_mol2_converter\data\pdb\bsia.pdb
   36    37     0     0     0
SMALL
GASTEIGER

@<TRIPOS>ATOM
      1 N9          1.3840    0.0150    0.0090 N.ar      1 BSI1        0.0000
      2 C8          1.7720    1.3430   -0.0270 C.ar      1 BSI1        0.0000
      3 H8          2.8250    1.6280   -0.0480 H         1 BSI1        0.0000
      4 N7          0.7590    2.2020   -0.0340 N.ar      1 BSI1        0.0000
      5 C5         -0.3670    1.3760   -0.0020 C.ar      1 BSI1        0.0000
      6 C6         -1.7400    1.6690    0.0030 C.3       1 BSI1        0.0000
      7 N6         -2.1700    2.9770   -0.0420 N.3       1 BSI1        0.0000
      8 H6         -1.4190    3.6680   -0.0170 H         1 BSI1        0.0000
      9 N1         -2.6180    0.6160    0.0530 N.2       1 BSI1        0.0000
     10 C2         -2.1480   -0.6640    0.0840 C.2       1 BSI1        0.0000
     11 N3         -0.8390   -1.0200    0.0700 N.pl3     1 BSI1        0.0000
     12 C4          0.0010    0.0240    0.0290 C.ar      1 BSI1        0.0000
     13 C12        -3.5820    3.4400    0.0690 C.3       1 BSI1        0.0000
     14 H121       -4.2790    2.6080   -0.1730 H         1 BSI1        0.0000
     15 H122       -3.7520    4.2280   -0.7000 H         1 BSI1        0.0000
     16 S2         -3.2670   -2.0090    0.1420 S.3       1 BSI1        0.0000
     17 C11        -4.8400   -1.0750    0.1260 C.3       1 BSI1        0.0000
     18 H11        -4.9450   -0.4640   -0.7970 H         1 BSI1        0.0000
     19 H12        -4.9260   -0.3980    1.0040 H         1 BSI1        0.0000
     20 H13        -5.7040   -1.7720    0.1610 H         1 BSI1        0.0000
     21 C13        -3.8060    4.0100    1.4490 C.2       1 BSI1        0.0000
     22 H130       -2.9680    4.6140    1.8260 H         1 BSI1        0.0000
     23 C14        -4.9290    3.9670    2.2000 C.2       1 BSI1        0.0000
     24 C15        -6.2120    3.3230    1.7240 C.3       1 BSI1        0.0000
     25 H151       -6.1520    2.8830    0.7070 H         1 BSI1        0.0000
     26 H152       -7.0340    4.0700    1.6980 H         1 BSI1        0.0000
     27 H153       -6.5210    2.5090    2.4150 H         1 BSI1        0.0000
     28 C16        -4.9390    4.6020    3.5730 C.3       1 BSI1        0.0000
     29 H161       -3.9230    4.9250    3.8990 H         1 BSI1        0.0000
     30 H162       -5.3070    3.8810    4.3370 H         1 BSI1        0.0000
     31 O16        -5.7710    5.7600    3.5750 O.3       1 BSI1        0.0000
     32 H16O       -6.6810    5.4510    3.5520 H         1 BSI1        0.0000
     33 CM          2.2480   -1.1750    0.0240 C.3       1 BSI1        0.0000
     34 HM1         3.3290   -0.9130    0.0180 H         1 BSI1        0.0000
     35 HM2         2.0410   -1.8100   -0.8660 H         1 BSI1        0.0000
     36 HM3         2.0440   -1.7880    0.9300 H         1 BSI1        0.0000
@<TRIPOS>BOND
     1   35   33 1 
     2   18   17 1 
     3   15   13 1 
     4   14   13 1 
     5    3    2 1 
     6    7    8 1 
     7    7    6 1 
     8    7   13 1 
     9    4    2 ar
    10    4    5 ar
    11    2    1 ar
    12    5    6 1 
    13    5   12 ar
    14    6    9 1 
    15    1   33 1 
    16    1   12 ar
    17   34   33 1 
    18   33   36 1 
    19   12   11 1 
    20    9   10 2 
    21   13   21 1 
    22   11   10 1 
    23   10   16 1 
    24   17   16 1 
    25   17   20 1 
    26   17   19 1 
    27   25   24 1 
    28   21   22 1 
    29   21   23 2 
    30   26   24 1 
    31   24   23 1 
    32   24   27 1 
    33   23   28 1 
    34   32   31 1 
    35   28   31 1 
    36   28   29 1 
    37   28   30 1 
