@<TRIPOS>MOLECULE
C:\Users\Praveer\PycharmProjects\pdb_to_mol2_converter\data\pdb\bsm.pdb
  145   144     0     0     0
SMALL
GASTEIGER

@<TRIPOS>ATOM
      1 N          21.4520    4.8090    6.7170 N.4       1 BSM1        0.0000
      2 C15        22.5140    5.7850    7.1170 C.3       1 BSM1        0.0000
      3 H15A       22.4190    6.6900    6.5250 H         1 BSM1        0.0000
      4 H15B       23.5020    5.3780    6.9470 H         1 BSM1        0.0000
      5 H15C       22.4230    6.0580    8.1590 H         1 BSM1        0.0000
      6 C14        21.6130    4.4580    5.2640 C.3       1 BSM1        0.0000
      7 H14A       22.5680    4.0210    5.0340 H         1 BSM1        0.0000
      8 H14B       21.4520    5.3340    4.6310 H         1 BSM1        0.0000
      9 H14C       20.8160    3.7790    4.9510 H         1 BSM1        0.0000
     10 C13        21.5760    3.5450    7.5130 C.3       1 BSM1        0.0000
     11 H13A       21.4580    3.7310    8.5720 H         1 BSM1        0.0000
     12 H13B       22.5390    3.0790    7.3500 H         1 BSM1        0.0000
     13 H13C       20.8100    2.8380    7.2040 H         1 BSM1        0.0000
     14 C12        20.0650    5.4050    6.9180 C.3       1 BSM1        0.0000
     15 H12A       19.8430    5.5400    7.9650 H         1 BSM1        0.0000
     16 H12B       19.3290    4.6860    6.5410 H         1 BSM1        0.0000
     17 C11        19.7500    6.7190    6.1710 C.3       1 BSM1        0.0000
     18 H11A       20.5770    7.0430    5.5000 H         1 BSM1        0.0000
     19 H11B       19.6090    7.5350    6.9150 H         1 BSM1        0.0000
     20 P          18.5480    5.5400    4.2120 P.3       1 BSM1        0.0000
     21 O13        19.7090    5.8980    3.3610 O.2       1 BSM1        0.0000
     22 O14        18.5310    4.1690    4.7630 O.3       1 BSM1        0.0000
     23 O11        17.2080    5.8710    3.4450 O.3       1 BSM1        0.0000
     24 O12        18.5390    6.5490    5.4380 O.3       1 BSM1        0.0000
     25 C1S        16.8920    7.1970    3.0060 C.3       1 BSM1        0.0000
     26 H1S        17.4560    7.9800    3.5660 H         1 BSM1        0.0000
     27 H1T        15.8130    7.3640    3.2120 H         1 BSM1        0.0000
     28 NF         18.5490    7.1570    1.2040 N.am      1 BSM1        0.0000
     29 HNF        19.0860    6.8360    1.9950 H         1 BSM1        0.0000
     30 C2S        17.1500    7.4020    1.4730 C.3       1 BSM1        0.0000
     31 H2S        16.5920    6.5880    0.9520 H         1 BSM1        0.0000
     32 C3S        16.5890    8.7560    0.9490 C.3       1 BSM1        0.0000
     33 H3S        16.9080    8.9390   -0.0970 H         1 BSM1        0.0000
     34 O3         17.0680    9.8630    1.7120 O.3       1 BSM1        0.0000
     35 HO3        17.8410    9.5230    2.1690 H         1 BSM1        0.0000
     36 C4S        15.0890    8.7650    1.0210 C.2       1 BSM1        0.0000
     37 H4S        14.6670    9.0900    1.9820 H         1 BSM1        0.0000
     38 C5S        14.2760    8.4430   -0.0010 C.2       1 BSM1        0.0000
     39 H5S        14.7170    8.1380   -0.9660 H         1 BSM1        0.0000
     40 C6S        12.7700    8.4480    0.0540 C.3       1 BSM1        0.0000
     41 H6S        12.3620    9.0180   -0.8100 H         1 BSM1        0.0000
     42 H6T        12.3970    8.9490    0.9770 H         1 BSM1        0.0000
     43 C7S        12.2000    7.0190    0.0160 C.3       1 BSM1        0.0000
     44 H7S        12.5650    6.4470    0.9010 H         1 BSM1        0.0000
     45 H7T        12.5580    6.4910   -0.8980 H         1 BSM1        0.0000
     46 C8S        10.6650    7.0050    0.0210 C.3       1 BSM1        0.0000
     47 H8S        10.2950    7.5590   -0.8720 H         1 BSM1        0.0000
     48 H8T        10.2990    7.5400    0.9260 H         1 BSM1        0.0000
     49 C9S        10.0800    5.5860    0.0080 C.3       1 BSM1        0.0000
     50 H9S        10.4440    5.0340    0.9030 H         1 BSM1        0.0000
     51 H9T        10.4480    5.0470   -0.8940 H         1 BSM1        0.0000
     52 C10S        8.5460    5.5870    0.0040 C.3       1 BSM1        0.0000
     53 H10S        8.1850    6.1370   -0.8940 H         1 BSM1        0.0000
     54 H10T        8.1820    6.1330    0.9040 H         1 BSM1        0.0000
     55 C11S        7.9470    4.1740    0.0010 C.3       1 BSM1        0.0000
     56 H11S        8.3060    3.6230    0.8990 H         1 BSM1        0.0000
     57 H11T        8.3080    3.6270   -0.8990 H         1 BSM1        0.0000
     58 C12S        6.4120    4.1880    0.0000 C.3       1 BSM1        0.0000
     59 H12S        6.0540    4.7390   -0.8990 H         1 BSM1        0.0000
     60 H12T        6.0530    4.7380    0.8990 H         1 BSM1        0.0000
     61 C13S        5.8050    2.7790   -0.0000 C.3       1 BSM1        0.0000
     62 H13S        6.1630    2.2280    0.8990 H         1 BSM1        0.0000
     63 H13T        6.1630    2.2280   -0.8990 H         1 BSM1        0.0000
     64 C14S        4.2710    2.7970   -0.0000 C.3       1 BSM1        0.0000
     65 H14S        3.9130    3.3480   -0.8990 H         1 BSM1        0.0000
     66 H14T        3.9130    3.3480    0.8980 H         1 BSM1        0.0000
     67 C15S        3.6630    1.3880   -0.0000 C.3       1 BSM1        0.0000
     68 H15S        4.0210    0.8380    0.8990 H         1 BSM1        0.0000
     69 H15T        4.0210    0.8370   -0.8990 H         1 BSM1        0.0000
     70 C16S        2.1280    1.4050   -0.0010 C.3       1 BSM1        0.0000
     71 H16S        1.7700    1.9560   -0.8990 H         1 BSM1        0.0000
     72 H16T        1.7690    1.9550    0.8980 H         1 BSM1        0.0000
     73 C17S        1.5210   -0.0040   -0.0010 C.3       1 BSM1        0.0000
     74 H17S        1.8880   -0.5520    0.8970 H         1 BSM1        0.0000
     75 H17T        1.8880   -0.5520   -0.8990 H         1 BSM1        0.0000
     76 C18S       -0.0100   -0.0050   -0.0010 C.3       1 BSM1        0.0000
     77 H18S       -0.3990    0.5160   -0.9030 H         1 BSM1        0.0000
     78 H18T       -0.3990    0.5160    0.9000 H         1 BSM1        0.0000
     79 H18U       -0.4000   -1.0460   -0.0020 H         1 BSM1        0.0000
     80 C1F        19.0030    6.9270   -0.0240 C.2       1 BSM1        0.0000
     81 OF         18.2770    7.0350   -1.0040 O.2       1 BSM1        0.0000
     82 C2F        20.4090    6.4190   -0.1200 C.3       1 BSM1        0.0000
     83 H2F        20.3780    5.3080   -0.1240 H         1 BSM1        0.0000
     84 H2G        20.9770    6.7410    0.7810 H         1 BSM1        0.0000
     85 C3F        21.1260    6.9120   -1.3930 C.3       1 BSM1        0.0000
     86 H3F        21.1750    8.0240   -1.3880 H         1 BSM1        0.0000
     87 H3G        20.5450    6.6030   -2.2920 H         1 BSM1        0.0000
     88 C4F        22.5430    6.3340   -1.5000 C.3       1 BSM1        0.0000
     89 H4F        22.4780    5.2220   -1.4740 H         1 BSM1        0.0000
     90 H4G        23.1380    6.6610   -0.6180 H         1 BSM1        0.0000
     91 C5F        23.2680    6.7560   -2.7830 C.3       1 BSM1        0.0000
     92 H5F        23.3870    7.8620   -2.7970 H         1 BSM1        0.0000
     93 H5G        22.6440    6.4720   -3.6610 H         1 BSM1        0.0000
     94 C6F        24.6430    6.0890   -2.9080 C.3       1 BSM1        0.0000
     95 H6F        24.5110    4.9850   -2.8580 H         1 BSM1        0.0000
     96 H6G        25.2780    6.3920   -2.0460 H         1 BSM1        0.0000
     97 C7F        25.3600    6.4420   -4.2160 C.3       1 BSM1        0.0000
     98 H7F        25.5200    7.5430   -4.2640 H         1 BSM1        0.0000
     99 H7G        24.7130    6.1550   -5.0750 H         1 BSM1        0.0000
    100 C8F        26.7100    5.7270   -4.3440 C.3       1 BSM1        0.0000
    101 H8F        26.5470    4.6270   -4.2750 H         1 BSM1        0.0000
    102 H8G        27.3640    6.0250   -3.4940 H         1 BSM1        0.0000
    103 C9F        27.4230    6.0420   -5.6640 C.3       1 BSM1        0.0000
    104 H9F        27.5820    7.1410   -5.7420 H         1 BSM1        0.0000
    105 H9G        26.7730    5.7320   -6.5120 H         1 BSM1        0.0000
    106 C10F       28.7760    5.3290   -5.7800 C.3       1 BSM1        0.0000
    107 H10F       28.6180    4.2310   -5.6760 H         1 BSM1        0.0000
    108 H10G       29.4340    5.6560   -4.9440 H         1 BSM1        0.0000
    109 C11F       29.4770    5.6080   -7.1140 C.3       1 BSM1        0.0000
    110 H11F       29.6250    6.7050   -7.2300 H         1 BSM1        0.0000
    111 H11G       28.8210    5.2650   -7.9470 H         1 BSM1        0.0000
    112 C12F       30.8340    4.9020   -7.2200 C.3       1 BSM1        0.0000
    113 H12F       30.6880    3.8090   -7.0660 H         1 BSM1        0.0000
    114 H12G       31.5030    5.2710   -6.4110 H         1 BSM1        0.0000
    115 C13F       31.5100    5.1290   -8.5780 C.3       1 BSM1        0.0000
    116 H13F       31.6610    6.2200   -8.7360 H         1 BSM1        0.0000
    117 H13G       30.8360    4.7590   -9.3840 H         1 BSM1        0.0000
    118 C14F       32.8610    4.4110   -8.6870 C.3       1 BSM1        0.0000
    119 H14F       32.7100    3.3230   -8.5010 H         1 BSM1        0.0000
    120 H14G       33.5460    4.7970   -7.9000 H         1 BSM1        0.0000
    121 C15F       33.5160    4.5950  -10.0620 C.3       1 BSM1        0.0000
    122 H15F       33.6820    5.6800  -10.2460 H         1 BSM1        0.0000
    123 H15G       32.8220    4.2200  -10.8480 H         1 BSM1        0.0000
    124 C16F       34.8520    3.8510  -10.1790 C.3       1 BSM1        0.0000
    125 H16F       34.6830    2.7670   -9.9930 H         1 BSM1        0.0000
    126 H16G       35.5470    4.2240   -9.3930 H         1 BSM1        0.0000
    127 C17F       35.5070    4.0280  -11.5550 C.3       1 BSM1        0.0000
    128 H17F       35.6890    5.1110  -11.7350 H         1 BSM1        0.0000
    129 H17G       34.8070    3.6670  -12.3410 H         1 BSM1        0.0000
    130 C18F       36.8340    3.2670  -11.6760 C.3       1 BSM1        0.0000
    131 H18F       36.6480    2.1820  -11.5110 H         1 BSM1        0.0000
    132 H18G       37.5280    3.6160  -10.8780 H         1 BSM1        0.0000
    133 C19F       37.5020    3.4620  -13.0430 C.3       1 BSM1        0.0000
    134 H19F       37.6930    4.5470  -13.2030 H         1 BSM1        0.0000
    135 H19G       36.8070    3.1190  -13.8420 H         1 BSM1        0.0000
    136 C20F       38.8260    2.6960  -13.1660 C.3       1 BSM1        0.0000
    137 H20F       38.6340    1.6090  -13.0170 H         1 BSM1        0.0000
    138 H20G       39.5170    3.0300  -12.3600 H         1 BSM1        0.0000
    139 C21F       39.5050    2.9030  -14.5250 C.3       1 BSM1        0.0000
    140 H21F       39.6900    3.9920  -14.6700 H         1 BSM1        0.0000
    141 H21G       38.8070    2.5740  -15.3290 H         1 BSM1        0.0000
    142 C22F       40.8270    2.1450  -14.6640 C.3       1 BSM1        0.0000
    143 H22F       40.6620    1.0520  -14.5480 H         1 BSM1        0.0000
    144 H22G       41.5480    2.4740  -13.8840 H         1 BSM1        0.0000
    145 H22H       41.2810    2.3280  -15.6610 H         1 BSM1        0.0000
@<TRIPOS>BOND
     1  145  142 1 
     2  141  139 1 
     3  140  139 1 
     4  142  143 1 
     5  142  139 1 
     6  142  144 1 
     7  139  136 1 
     8  135  133 1 
     9  134  133 1 
    10  136  133 1 
    11  136  137 1 
    12  136  138 1 
    13  133  130 1 
    14  129  127 1 
    15  128  127 1 
    16  130  127 1 
    17  130  131 1 
    18  130  132 1 
    19  127  124 1 
    20  123  121 1 
    21  122  121 1 
    22  124  121 1 
    23  124  125 1 
    24  124  126 1 
    25  121  118 1 
    26  117  115 1 
    27  116  115 1 
    28  118  115 1 
    29  118  119 1 
    30  118  120 1 
    31  115  112 1 
    32  111  109 1 
    33  110  109 1 
    34  112  109 1 
    35  112  113 1 
    36  112  114 1 
    37  109  106 1 
    38  105  103 1 
    39  106  107 1 
    40  106  103 1 
    41  106  108 1 
    42  104  103 1 
    43  103  100 1 
    44   99   97 1 
    45  100  101 1 
    46  100   97 1 
    47  100  102 1 
    48   98   97 1 
    49   97   94 1 
    50   93   91 1 
    51   94   95 1 
    52   94   91 1 
    53   94   96 1 
    54   92   91 1 
    55   91   88 1 
    56   87   85 1 
    57   88   89 1 
    58   88   85 1 
    59   88   90 1 
    60   85   86 1 
    61   85   82 1 
    62   81   80 2 
    63   39   38 1 
    64   77   76 1 
    65   63   61 1 
    66   59   58 1 
    67   65   64 1 
    68   69   67 1 
    69   75   73 1 
    70   71   70 1 
    71   57   55 1 
    72   45   43 1 
    73   51   49 1 
    74   53   52 1 
    75   47   46 1 
    76   41   40 1 
    77   83   82 1 
    78   82   80 1 
    79   82   84 1 
    80   33   32 1 
    81   80   28 am
    82   79   76 1 
    83   76   73 1 
    84   76   78 1 
    85   38   40 1 
    86   38   36 2 
    87   70   73 1 
    88   70   67 1 
    89   70   72 1 
    90   73   74 1 
    91   58   61 1 
    92   58   55 1 
    93   58   60 1 
    94   64   67 1 
    95   64   61 1 
    96   64   66 1 
    97   67   68 1 
    98   61   62 1 
    99   55   52 1 
   100   55   56 1 
   101   52   49 1 
   102   52   54 1 
   103   49   46 1 
   104   49   50 1 
   105   43   46 1 
   106   43   40 1 
   107   43   44 1 
   108   46   48 1 
   109   40   42 1 
   110   32   36 1 
   111   32   30 1 
   112   32   34 1 
   113   31   30 1 
   114   36   37 1 
   115   28   30 1 
   116   28   29 1 
   117   30   25 1 
   118   34   35 1 
   119   25   27 1 
   120   25   23 1 
   121   25   26 1 
   122   21   20 2 
   123   23   20 1 
   124   20   22 1 
   125   20   24 1 
   126    8    6 1 
   127    9    6 1 
   128    7    6 1 
   129    6    1 1 
   130   24   17 1 
   131   18   17 1 
   132   17   19 1 
   133   17   14 1 
   134    3    2 1 
   135   16   14 1 
   136    1   14 1 
   137    1    2 1 
   138    1   10 1 
   139   14   15 1 
   140    4    2 1 
   141    2    5 1 
   142   13   10 1 
   143   12   10 1 
   144   10   11 1 
