@<TRIPOS>MOLECULE
C:\Users\Praveer\PycharmProjects\pdb_to_mol2_converter\data\pdb\bsma.pdb
   25    26     0     0     0
SMALL
GASTEIGER

@<TRIPOS>ATOM
      1 N9          1.3700    0.0220    0.0320 N.ar      1 BSM1        0.0000
      2 C8          1.7400    1.3540   -0.0320 C.ar      1 BSM1        0.0000
      3 H8          2.7880    1.6560    0.0240 H         1 BSM1        0.0000
      4 N7          0.7200    2.1940   -0.1630 N.ar      1 BSM1        0.0000
      5 C5         -0.3930    1.3510   -0.1900 C.ar      1 BSM1        0.0000
      6 C6         -1.7660    1.6190   -0.3060 C.3       1 BSM1        0.0000
      7 N6         -2.2240    2.9060   -0.4690 N.3       1 BSM1        0.0000
      8 H6         -1.5110    3.6110   -0.2710 H         1 BSM1        0.0000
      9 N1         -2.6330    0.5560   -0.2510 N.2       1 BSM1        0.0000
     10 C2         -2.1490   -0.7120   -0.1280 C.2       1 BSM1        0.0000
     11 N3         -0.8370   -1.0470   -0.0410 N.pl3     1 BSM1        0.0000
     12 C4         -0.0100    0.0080   -0.0650 C.ar      1 BSM1        0.0000
     13 C10        -3.5540    3.3410    0.0120 C.3       1 BSM1        0.0000
     14 H11        -3.5790    3.4010    1.1220 H         1 BSM1        0.0000
     15 H12        -4.3510    2.6370   -0.3160 H         1 BSM1        0.0000
     16 H13        -3.8070    4.3440   -0.3980 H         1 BSM1        0.0000
     17 S2         -3.2560   -2.0680   -0.0670 S.3       1 BSM1        0.0000
     18 C20        -4.8340   -1.1400   -0.0630 C.3       1 BSM1        0.0000
     19 H21        -4.9680   -0.5470   -0.9950 H         1 BSM1        0.0000
     20 H22        -4.9000   -0.4490    0.8050 H         1 BSM1        0.0000
     21 H23        -5.6940   -1.8400    0.0090 H         1 BSM1        0.0000
     22 CM          2.2460   -1.1500    0.1800 C.3       1 BSM1        0.0000
     23 HM1         3.3210   -0.8700    0.2390 H         1 BSM1        0.0000
     24 HM2         2.1140   -1.8410   -0.6820 H         1 BSM1        0.0000
     25 HM3         1.9840   -1.7120    1.1040 H         1 BSM1        0.0000
@<TRIPOS>BOND
     1   19   18 1 
     2   24   22 1 
     3    7    6 1 
     4    7    8 1 
     5    7   13 1 
     6   16   13 1 
     7   15   13 1 
     8    6    9 1 
     9    6    5 1 
    10    9   10 2 
    11    5    4 ar
    12    5   12 ar
    13    4    2 ar
    14   10   17 1 
    15   10   11 1 
    16   17   18 1 
    17   12   11 1 
    18   12    1 ar
    19   18   21 1 
    20   18   20 1 
    21    2    3 1 
    22    2    1 ar
    23   13   14 1 
    24    1   22 1 
    25   22   23 1 
    26   22   25 1 
