@<TRIPOS>MOLECULE
C:\Users\Praveer\PycharmProjects\pdb_to_mol2_converter\data\pdb\bsorp.pdb
   24    24     0     0     0
SMALL
GASTEIGER

@<TRIPOS>ATOM
      1 C2          1.4550   -0.0090   -0.1210 C.3       1 BSO1        0.0000
      2 O2          1.6780   -0.6700    1.0950 O.3       1 BSO1        0.0000
      3 HO2         1.4230   -1.5800    0.9070 H         1 BSO1        0.0000
      4 C6         -0.4190    1.0620   -1.2240 C.3       1 BSO1        0.0000
      5 H61        -1.5200    1.2000   -1.1090 H         1 BSO1        0.0000
      6 H62        -0.2640    0.5990   -2.2230 H         1 BSO1        0.0000
      7 O6          0.0320    0.1890   -0.1740 O.3       1 BSO1        0.0000
      8 C3          2.1710    1.3440   -0.0460 C.3       1 BSO1        0.0000
      9 H3          1.8420    1.8410    0.9010 H         1 BSO1        0.0000
     10 O3          3.6010    1.2200    0.0130 O.3       1 BSO1        0.0000
     11 HO3         3.8310    0.7500    0.8260 H         1 BSO1        0.0000
     12 C4          1.7500    2.2540   -1.1820 C.3       1 BSO1        0.0000
     13 H4          2.0490    1.7850   -2.1500 H         1 BSO1        0.0000
     14 O4          2.4060    3.5200   -1.1080 O.3       1 BSO1        0.0000
     15 HO4         3.3420    3.3430   -0.9360 H         1 BSO1        0.0000
     16 C5          0.2480    2.4170   -1.1630 C.3       1 BSO1        0.0000
     17 H5         -0.0520    2.9160   -0.2100 H         1 BSO1        0.0000
     18 O5         -0.2030    3.2140   -2.2450 O.3       1 BSO1        0.0000
     19 HO5         0.3450    4.0110   -2.2510 H         1 BSO1        0.0000
     20 C1          1.8880   -0.9170   -1.2850 C.3       1 BSO1        0.0000
     21 H1A         3.0010   -0.8910   -1.3290 H         1 BSO1        0.0000
     22 H1B         1.5310   -0.5350   -2.2620 H         1 BSO1        0.0000
     23 O1          1.5280   -2.3050   -1.1430 O.3       1 BSO1        0.0000
     24 HO1         0.6110   -2.4430   -1.4110 H         1 BSO1        0.0000
@<TRIPOS>BOND
     1   22   20 1 
     2   19   18 1 
     3   18   16 1 
     4    6    4 1 
     5   13   12 1 
     6   24   23 1 
     7   21   20 1 
     8   20   23 1 
     9   20    1 1 
    10    4   16 1 
    11    4    5 1 
    12    4    7 1 
    13   12   16 1 
    14   12   14 1 
    15   12    8 1 
    16   16   17 1 
    17   14   15 1 
    18    7    1 1 
    19    1    8 1 
    20    1    2 1 
    21    8   10 1 
    22    8    9 1 
    23   10   11 1 
    24    3    2 1 
