@<TRIPOS>MOLECULE
C:\Users\Praveer\PycharmProjects\pdb_to_mol2_converter\data\pdb\bsor.pdb
   24    24     0     0     0
SMALL
GASTEIGER

@<TRIPOS>ATOM
      1 O5          1.4660    0.0460   -0.1580 O.3       1 BSO1        0.0000
      2 C2          1.9260    1.3970   -0.0840 C.3       1 BSO1        0.0000
      3 O2          2.2490    1.8700   -1.3570 O.3       1 BSO1        0.0000
      4 HO2         1.4120    1.8630   -1.8370 H         1 BSO1        0.0000
      5 C5          0.0330    0.0270   -0.0190 C.3       1 BSO1        0.0000
      6 H5         -0.1810   -0.4070    0.9850 H         1 BSO1        0.0000
      7 C6         -0.5540   -0.8530   -1.0960 C.3       1 BSO1        0.0000
      8 H61        -0.2200   -0.5070   -2.1010 H         1 BSO1        0.0000
      9 H62        -1.6660   -0.7980   -1.0650 H         1 BSO1        0.0000
     10 O6         -0.1650   -2.2140   -0.9180 O.3       1 BSO1        0.0000
     11 HO6         0.7980   -2.2610   -0.9240 H         1 BSO1        0.0000
     12 C1          3.1860    1.3580    0.7730 C.3       1 BSO1        0.0000
     13 H11         3.9960    0.8280    0.2220 H         1 BSO1        0.0000
     14 H12         2.9790    0.7640    1.6920 H         1 BSO1        0.0000
     15 O1          3.6480    2.6590    1.1760 O.3       1 BSO1        0.0000
     16 HO1         3.9690    3.1300    0.3960 H         1 BSO1        0.0000
     17 C3          0.7820    2.2390    0.5330 C.3       1 BSO1        0.0000
     18 H3          0.8270    3.3030    0.2230 H         1 BSO1        0.0000
     19 O3          0.7410    2.1800    1.9470 O.3       1 BSO1        0.0000
     20 HO3         1.5840    2.5140    2.2880 H         1 BSO1        0.0000
     21 C4         -0.4160    1.4920   -0.0410 C.3       1 BSO1        0.0000
     22 H4         -1.3120    1.6130    0.6110 H         1 BSO1        0.0000
     23 O4         -0.7690    1.9800   -1.3160 O.3       1 BSO1        0.0000
     24 HO4        -1.5940    2.4760   -1.2640 H         1 BSO1        0.0000
@<TRIPOS>BOND
     1    8    7 1 
     2    4    3 1 
     3    3    2 1 
     4   23   24 1 
     5   23   21 1 
     6    7    9 1 
     7    7   10 1 
     8    7    5 1 
     9   11   10 1 
    10    1    2 1 
    11    1    5 1 
    12    2   17 1 
    13    2   12 1 
    14   21    5 1 
    15   21   17 1 
    16   21   22 1 
    17    5    6 1 
    18   13   12 1 
    19   18   17 1 
    20   16   15 1 
    21   17   19 1 
    22   12   15 1 
    23   12   14 1 
    24   19   20 1 
