@<TRIPOS>MOLECULE
C:\Users\Praveer\PycharmProjects\pdb_to_mol2_converter\data\pdb\bstu.pdb
   30    30     0     0     0
SMALL
GASTEIGER

@<TRIPOS>ATOM
      1 N1          1.2810   -0.0030   -0.1150 N.ar      1 BST1        0.0000
      2 C2          2.0380    1.1940   -0.1560 C.ar      1 BST1        0.0000
      3 S2          3.6820    1.3180   -0.2640 S.2       1 BST1        0.0000
      4 N3          1.2620    2.3390   -0.0940 N.ar      1 BST1        0.0000
      5 H3          1.7540    3.2150   -0.1380 H         1 BST1        0.0000
      6 C4         -0.1090    2.4230   -0.0010 C.ar      1 BST1        0.0000
      7 O4         -0.6340    3.5350   -0.0290 O.2       1 BST1        0.0000
      8 C5         -0.8250    1.1750    0.0730 C.ar      1 BST1        0.0000
      9 C6         -0.0870    0.0130   -0.0030 C.ar      1 BST1        0.0000
     10 H6         -0.5670   -0.9690    0.0030 H         1 BST1        0.0000
     11 C7         -2.2950    1.2640    0.2400 C.3       1 BST1        0.0000
     12 H71        -2.5330    1.8600    1.1380 H         1 BST1        0.0000
     13 H72        -2.7860    0.2800    0.2720 H         1 BST1        0.0000
     14 N8         -2.8650    2.0130   -0.9310 N.4       1 BST1        0.0000
     15 H81        -2.2260    2.7800   -1.1090 H         1 BST1        0.0000
     16 H82        -3.7230    2.4500   -0.6330 H         1 BST1        0.0000
     17 C9         -3.1530    1.3390   -2.2690 C.3       1 BST1        0.0000
     18 H91        -3.4970    2.1790   -2.9020 H         1 BST1        0.0000
     19 H92        -4.0340    0.7020   -2.0720 H         1 BST1        0.0000
     20 C10        -1.9740    0.6380   -2.9540 C.3       1 BST1        0.0000
     21 H101       -0.9810    0.9370   -2.5750 H         1 BST1        0.0000
     22 H102       -1.9970    0.8280   -4.0470 H         1 BST1        0.0000
     23 S11        -2.1560   -1.1350   -2.7780 S.3       1 BST1        0.0000
     24 O11        -0.9420   -1.6520   -3.3610 O.3       1 BST1        0.0000
     25 O12        -2.2770   -1.3310   -1.3520 O.3       1 BST1        0.0000
     26 O13        -3.3680   -1.3880   -3.5200 O.3       1 BST1        0.0000
     27 CM          2.0020   -1.2850   -0.1850 C.3       1 BST1        0.0000
     28 HM1         2.6760   -1.4210    0.6920 H         1 BST1        0.0000
     29 HM2         2.6280   -1.3470   -1.1060 H         1 BST1        0.0000
     30 HM3         1.3130   -2.1610   -0.2130 H         1 BST1        0.0000
@<TRIPOS>BOND
     1   22   20 1 
     2   26   23 1 
     3   24   23 1 
     4   20   23 1 
     5   20   21 1 
     6   20   17 1 
     7   18   17 1 
     8   23   25 1 
     9   17   19 1 
    10   17   14 1 
    11   15   14 1 
    12   29   27 1 
    13   14   16 1 
    14   14   11 1 
    15    3    2 2 
    16   30   27 1 
    17   27    1 1 
    18   27   28 1 
    19    2    1 ar
    20    2    4 ar
    21    5    4 1 
    22    1    9 ar
    23    4    6 ar
    24    7    6 2 
    25    9   10 1 
    26    9    8 ar
    27    6    8 ar
    28    8   11 1 
    29   11   13 1 
    30   11   12 1 
