@<TRIPOS>MOLECULE
C:\Users\Praveer\PycharmProjects\pdb_to_mol2_converter\data\pdb\bt6a.pdb
   34    35     0     0     0
SMALL
GASTEIGER

@<TRIPOS>ATOM
      1 N9          1.3890    0.0130    0.0090 N.ar      1 BT61        0.0000
      2 C8          1.7600    1.3440    0.0040 C.ar      1 BT61        0.0000
      3 H8          2.8100    1.6460   -0.0040 H         1 BT61        0.0000
      4 N7          0.7380    2.1880    0.0130 N.ar      1 BT61        0.0000
      5 C5         -0.3860    1.3440    0.0200 C.ar      1 BT61        0.0000
      6 C6         -1.7610    1.5990    0.0240 C.3       1 BT61        0.0000
      7 N6         -2.1270    2.9420   -0.0340 N.am      1 BT61        0.0000
      8 H6         -1.3780    3.5590   -0.2310 H         1 BT61        0.0000
      9 N1         -2.6140    0.5250    0.0520 N.2       1 BT61        0.0000
     10 C2         -2.1320   -0.7420    0.0560 C.2       1 BT61        0.0000
     11 H2         -2.8600   -1.5600    0.0730 H         1 BT61        0.0000
     12 N3         -0.8160   -1.0620    0.0380 N.pl3     1 BT61        0.0000
     13 C4          0.0040    0.0020    0.0230 C.ar      1 BT61        0.0000
     14 C10        -3.3850    3.4420   -0.0330 C.2       1 BT61        0.0000
     15 O10        -4.4230    2.8240    0.1550 O.2       1 BT61        0.0000
     16 N11        -3.3200    4.7600   -0.3420 N.am      1 BT61        0.0000
     17 H11        -2.4620    5.0650   -0.7590 H         1 BT61        0.0000
     18 C12        -4.3670    5.4490   -1.0800 C.3       1 BT61        0.0000
     19 H12        -5.1080    4.7230   -1.4830 H         1 BT61        0.0000
     20 C13        -3.6720    6.1330   -2.2860 C.2       1 BT61        0.0000
     21 ODA        -4.4240    6.7840   -3.0600 O.co2     1 BT61        0.0000
     22 ODB        -2.4210    5.9910   -2.3620 O.co2     1 BT61        0.0000
     23 C14        -5.0910    6.5380   -0.2840 C.3       1 BT61        0.0000
     24 H14        -4.3630    7.3220    0.0310 H         1 BT61        0.0000
     25 O14        -6.1220    7.1430   -1.0560 O.3       1 BT61        0.0000
     26 H14O       -5.6770    7.2400   -1.9280 H         1 BT61        0.0000
     27 C15        -5.7550    5.9390    0.9660 C.3       1 BT61        0.0000
     28 H151       -4.9900    5.5210    1.6520 H         1 BT61        0.0000
     29 H152       -6.4480    5.1220    0.6720 H         1 BT61        0.0000
     30 H153       -6.3320    6.7180    1.5040 H         1 BT61        0.0000
     31 CM          2.2740   -1.1650    0.0010 C.3       1 BT61        0.0000
     32 HM1         3.3500   -0.8850   -0.0030 H         1 BT61        0.0000
     33 HM2         2.0760   -1.7880   -0.9000 H         1 BT61        0.0000
     34 HM3         2.0830   -1.7980    0.8960 H         1 BT61        0.0000
@<TRIPOS>BOND
     1   21   20 ar
     2   22   20 ar
     3   20   18 1 
     4   26   25 1 
     5   19   18 1 
     6   18   16 1 
     7   18   23 1 
     8   25   23 1 
     9   33   31 1 
    10   17   16 1 
    11   16   14 am
    12   23   24 1 
    13   23   27 1 
    14    8    7 1 
    15    7   14 am
    16    7    6 1 
    17   14   15 2 
    18    3    2 1 
    19   32   31 1 
    20   31    1 1 
    21   31   34 1 
    22    2    1 ar
    23    2    4 ar
    24    1   13 ar
    25    4    5 ar
    26    5   13 ar
    27    5    6 1 
    28   13   12 1 
    29    6    9 1 
    30   12   10 1 
    31    9   10 2 
    32   10   11 1 
    33   29   27 1 
    34   27   30 1 
    35   27   28 1 
