@<TRIPOS>MOLECULE
C:\Users\Praveer\PycharmProjects\pdb_to_mol2_converter\data\pdb\btag.pdb
   24    24     0     0     0
SMALL
GASTEIGER

@<TRIPOS>ATOM
      1 O5          1.4350    0.0070    0.0080 O.3       1 BTA1        0.0000
      2 C2          1.9090    1.3520   -0.0360 C.3       1 BTA1        0.0000
      3 O2          2.2130    1.7840   -1.3320 O.3       1 BTA1        0.0000
      4 HO2         1.3580    1.9850   -1.7300 H         1 BTA1        0.0000
      5 C5         -0.0080    0.0050   -0.0070 C.3       1 BTA1        0.0000
      6 H5         -0.3300   -0.4870    0.9410 H         1 BTA1        0.0000
      7 C6         -0.4970   -0.8140   -1.1780 C.3       1 BTA1        0.0000
      8 H61        -0.0790   -0.4150   -2.1310 H         1 BTA1        0.0000
      9 H62        -1.6070   -0.7530   -1.2420 H         1 BTA1        0.0000
     10 O6         -0.1260   -2.1850   -1.0370 O.3       1 BTA1        0.0000
     11 HO6         0.8360   -2.2410   -1.0040 H         1 BTA1        0.0000
     12 C1          3.1790    1.4160    0.8050 C.3       1 BTA1        0.0000
     13 H11         3.9510    0.7550    0.3480 H         1 BTA1        0.0000
     14 H12         2.9630    1.0150    1.8200 H         1 BTA1        0.0000
     15 O1          3.7160    2.7430    0.9440 O.3       1 BTA1        0.0000
     16 HO1         4.0490    3.0260    0.0820 H         1 BTA1        0.0000
     17 C3          0.7690    2.1980    0.5970 C.3       1 BTA1        0.0000
     18 H3          0.7890    2.0260    1.6970 H         1 BTA1        0.0000
     19 O3          0.7980    3.6000    0.3750 O.3       1 BTA1        0.0000
     20 HO3         1.6670    3.9310    0.6430 H         1 BTA1        0.0000
     21 C4         -0.4500    1.4740    0.0130 C.3       1 BTA1        0.0000
     22 H4         -1.3240    1.5990    0.6910 H         1 BTA1        0.0000
     23 O4         -0.8330    1.9840   -1.2420 O.3       1 BTA1        0.0000
     24 HO4        -0.8990    2.9460   -1.1520 H         1 BTA1        0.0000
@<TRIPOS>BOND
     1    8    7 1 
     2    4    3 1 
     3    3    2 1 
     4    9    7 1 
     5   23   24 1 
     6   23   21 1 
     7    7   10 1 
     8    7    5 1 
     9   10   11 1 
    10    2    1 1 
    11    2   17 1 
    12    2   12 1 
    13    5    1 1 
    14    5   21 1 
    15    5    6 1 
    16   21   17 1 
    17   21   22 1 
    18   16   15 1 
    19   13   12 1 
    20   19   17 1 
    21   19   20 1 
    22   17   18 1 
    23   12   15 1 
    24   12   14 1 
