@<TRIPOS>MOLECULE
C:\Users\Praveer\PycharmProjects\pdb_to_mol2_converter\data\pdb\btagp.pdb
   24    24     0     0     0
SMALL
GASTEIGER

@<TRIPOS>ATOM
      1 C2          1.4600   -0.0810   -0.0770 C.3       1 BTA1        0.0000
      2 O2          1.7530   -0.7920   -1.2570 O.3       1 BTA1        0.0000
      3 HO2         1.7380   -1.7090   -0.9480 H         1 BTA1        0.0000
      4 C6         -0.4630    0.9910   -1.0330 C.3       1 BTA1        0.0000
      5 H61        -1.5580    1.1170   -0.8780 H         1 BTA1        0.0000
      6 H62        -0.3370    0.4900   -2.0190 H         1 BTA1        0.0000
      7 O6          0.0440    0.1420    0.0120 O.3       1 BTA1        0.0000
      8 C3          2.1940    1.2690   -0.0500 C.3       1 BTA1        0.0000
      9 H3          1.9390    1.7440    0.9270 H         1 BTA1        0.0000
     10 O3          3.6210    1.1520   -0.0800 O.3       1 BTA1        0.0000
     11 HO3         3.8870    1.0110   -0.9970 H         1 BTA1        0.0000
     12 C4          1.6990    2.1900   -1.1510 C.3       1 BTA1        0.0000
     13 H4          2.1770    3.1920   -1.0190 H         1 BTA1        0.0000
     14 O4          2.0730    1.7210   -2.4460 O.3       1 BTA1        0.0000
     15 HO4         1.9590    0.7550   -2.4440 H         1 BTA1        0.0000
     16 C5          0.2040    2.3560   -1.0580 C.3       1 BTA1        0.0000
     17 H5         -0.1540    2.9270   -1.9490 H         1 BTA1        0.0000
     18 O5         -0.1370    3.0980    0.1060 O.3       1 BTA1        0.0000
     19 HO5        -0.9370    3.6120   -0.0440 H         1 BTA1        0.0000
     20 C1          1.7700   -0.9510    1.1550 C.3       1 BTA1        0.0000
     21 H1A         1.1410   -0.6340    2.0150 H         1 BTA1        0.0000
     22 H1B         2.8260   -0.7510    1.4460 H         1 BTA1        0.0000
     23 O1          1.6730   -2.3770    0.9590 O.3       1 BTA1        0.0000
     24 HO1         0.7940   -2.6840    1.2140 H         1 BTA1        0.0000
@<TRIPOS>BOND
     1   14   15 1 
     2   14   12 1 
     3    6    4 1 
     4   17   16 1 
     5    2    3 1 
     6    2    1 1 
     7   12   16 1 
     8   12   13 1 
     9   12    8 1 
    10   16    4 1 
    11   16   18 1 
    12    4    5 1 
    13    4    7 1 
    14   11   10 1 
    15   10    8 1 
    16    1    8 1 
    17    1    7 1 
    18    1   20 1 
    19    8    9 1 
    20   19   18 1 
    21   23   20 1 
    22   23   24 1 
    23   20   22 1 
    24   20   21 1 
