@<TRIPOS>MOLECULE
C:\Users\Praveer\PycharmProjects\pdb_to_mol2_converter\data\pdb\btaln.pdb
   25    25     0     0     0
SMALL
GASTEIGER

@<TRIPOS>ATOM
      1 C1          1.4590    0.0190    0.0210 C.3       1 BTA1        0.0000
      2 H1          1.7320   -0.5310    0.9510 H         1 BTA1        0.0000
      3 O1          1.9570   -0.6950   -1.0750 O.3       1 BTA1        0.0000
      4 HO1         1.5140   -1.5450   -1.0900 H         1 BTA1        0.0000
      5 C5         -0.5280    0.8200    1.0570 C.3       1 BTA1        0.0000
      6 H5         -0.2440    0.2570    1.9780 H         1 BTA1        0.0000
      7 O5          0.0370    0.1340   -0.0770 O.3       1 BTA1        0.0000
      8 C2          2.0900    1.4120    0.0480 C.3       1 BTA1        0.0000
      9 H2          3.1880    1.2700    0.2090 H         1 BTA1        0.0000
     10 N2          1.9800    2.1800   -1.1860 N.3       1 BTA1        0.0000
     11 HN21        1.1350    2.7220   -1.2220 H         1 BTA1        0.0000
     12 HN22        2.1870    1.6460   -2.0060 H         1 BTA1        0.0000
     13 C3          1.5470    2.1500    1.2560 C.3       1 BTA1        0.0000
     14 H3          1.8190    1.5690    2.1680 H         1 BTA1        0.0000
     15 O3          2.1660    3.4200    1.3940 O.3       1 BTA1        0.0000
     16 HO3         2.0680    3.8480    0.5330 H         1 BTA1        0.0000
     17 C4          0.0290    2.2410    1.2020 C.3       1 BTA1        0.0000
     18 H4         -0.3330    2.6670    2.1670 H         1 BTA1        0.0000
     19 O4         -0.4440    3.0950    0.1620 O.3       1 BTA1        0.0000
     20 HO4        -1.3070    2.7470   -0.1260 H         1 BTA1        0.0000
     21 C6         -2.0420    0.7460    0.9490 C.3       1 BTA1        0.0000
     22 H61        -2.5070    1.2800    1.8090 H         1 BTA1        0.0000
     23 H62        -2.3670   -0.3190    0.9960 H         1 BTA1        0.0000
     24 O6         -2.5320    1.3180   -0.2650 O.3       1 BTA1        0.0000
     25 HO6        -2.2160    0.7870   -1.0100 H         1 BTA1        0.0000
@<TRIPOS>BOND
     1   12   10 1 
     2   11   10 1 
     3   10    8 1 
     4    4    3 1 
     5    3    1 1 
     6   25   24 1 
     7   24   21 1 
     8   20   19 1 
     9    7    1 1 
    10    7    5 1 
    11    1    8 1 
    12    1    2 1 
    13    8    9 1 
    14    8   13 1 
    15   19   17 1 
    16   16   15 1 
    17   21   23 1 
    18   21    5 1 
    19   21   22 1 
    20    5   17 1 
    21    5    6 1 
    22   17   13 1 
    23   17   18 1 
    24   13   15 1 
    25   13   14 1 
