@<TRIPOS>MOLECULE
C:\Users\Praveer\PycharmProjects\pdb_to_mol2_converter\data\pdb\btal.pdb
   24    24     0     0     0
SMALL
GASTEIGER

@<TRIPOS>ATOM
      1 C1          1.4240    0.0200   -0.0020 C.3       1 BTA1        0.0000
      2 H1          1.6930   -0.5460    0.9180 H         1 BTA1        0.0000
      3 O1          1.8930   -0.7030   -1.1000 O.3       1 BTA1        0.0000
      4 HO1         1.7810   -0.1070   -1.8490 H         1 BTA1        0.0000
      5 C5         -0.5260    0.8560    1.0660 C.3       1 BTA1        0.0000
      6 H5         -0.2270    0.2890    1.9800 H         1 BTA1        0.0000
      7 O5          0.0030    0.1680   -0.0820 O.3       1 BTA1        0.0000
      8 C2          2.0800    1.3980    0.0160 C.3       1 BTA1        0.0000
      9 H2          3.1810    1.2520    0.1290 H         1 BTA1        0.0000
     10 O2          1.8770    2.1400   -1.1950 O.3       1 BTA1        0.0000
     11 HO2         1.0040    2.5630   -1.1180 H         1 BTA1        0.0000
     12 C3          1.5720    2.1590    1.2300 C.3       1 BTA1        0.0000
     13 H3          1.8450    1.5700    2.1380 H         1 BTA1        0.0000
     14 O3          2.1970    3.4280    1.3820 O.3       1 BTA1        0.0000
     15 HO3         1.9640    3.9600    0.6110 H         1 BTA1        0.0000
     16 C4          0.0560    2.2680    1.1850 C.3       1 BTA1        0.0000
     17 H4         -0.3010    2.7260    2.1370 H         1 BTA1        0.0000
     18 O4         -0.3910    3.0970    0.1130 O.3       1 BTA1        0.0000
     19 HO4        -1.3050    2.8250   -0.0940 H         1 BTA1        0.0000
     20 C6         -2.0440    0.8070    1.0010 C.3       1 BTA1        0.0000
     21 H61        -2.4740    1.3360    1.8830 H         1 BTA1        0.0000
     22 H62        -2.3840   -0.2530    1.0440 H         1 BTA1        0.0000
     23 O6         -2.5630    1.4060   -0.1880 O.3       1 BTA1        0.0000
     24 HO6        -2.3620    0.8300   -0.9390 H         1 BTA1        0.0000
@<TRIPOS>BOND
     1    4    3 1 
     2   10   11 1 
     3   10    8 1 
     4    3    1 1 
     5   24   23 1 
     6   23   20 1 
     7   19   18 1 
     8    7    1 1 
     9    7    5 1 
    10    1    8 1 
    11    1    2 1 
    12    8    9 1 
    13    8   12 1 
    14   18   16 1 
    15   15   14 1 
    16   20   22 1 
    17   20    5 1 
    18   20   21 1 
    19    5   16 1 
    20    5    6 1 
    21   16   12 1 
    22   16   17 1 
    23   12   14 1 
    24   12   13 1 
