@<TRIPOS>MOLECULE
C:\Users\Praveer\PycharmProjects\pdb_to_mol2_converter\data\pdb\btala.pdb
   22    22     0     0     0
SMALL
GASTEIGER

@<TRIPOS>ATOM
      1 C1          1.4780   -0.0030    0.0180 C.3       1 BTA1        0.0000
      2 H1          1.7480   -0.5410    0.9550 H         1 BTA1        0.0000
      3 O1          1.9830   -0.7350   -1.0590 O.3       1 BTA1        0.0000
      4 HO1         1.7590   -0.1900   -1.8210 H         1 BTA1        0.0000
      5 C5         -0.4880    0.7920    1.0810 C.3       1 BTA1        0.0000
      6 H5         -0.1930    0.2330    1.9950 H         1 BTA1        0.0000
      7 O5          0.0580    0.1110   -0.0780 O.3       1 BTA1        0.0000
      8 C2          2.0890    1.3960    0.0160 C.3       1 BTA1        0.0000
      9 H2          3.1940    1.2860    0.1300 H         1 BTA1        0.0000
     10 O2          1.8610    2.1100   -1.2080 O.3       1 BTA1        0.0000
     11 HO2         0.9430    2.4360   -1.1520 H         1 BTA1        0.0000
     12 C3          1.5620    2.1620    1.2210 C.3       1 BTA1        0.0000
     13 H3          1.8530    1.5980    2.1390 H         1 BTA1        0.0000
     14 O3          2.1430    3.4560    1.3380 O.3       1 BTA1        0.0000
     15 HO3         1.7730    3.9760    0.6120 H         1 BTA1        0.0000
     16 C4          0.0440    2.2250    1.1770 C.3       1 BTA1        0.0000
     17 H4         -0.3290    2.6850    2.1230 H         1 BTA1        0.0000
     18 O4         -0.4200    3.0280    0.0880 O.3       1 BTA1        0.0000
     19 HO4        -1.3200    2.6600   -0.1000 H         1 BTA1        0.0000
     20 C6         -2.0220    0.8290    1.0530 C.2       1 BTA1        0.0000
     21 O61        -2.5780    0.2850    2.0410 O.co2     1 BTA1        0.0000
     22 O62        -2.5330    1.4780    0.1000 O.co2     1 BTA1        0.0000
@<TRIPOS>BOND
     1    4    3 1 
     2   10   11 1 
     3   10    8 1 
     4    3    1 1 
     5   19   18 1 
     6    7    1 1 
     7    7    5 1 
     8    8    1 1 
     9    8    9 1 
    10    8   12 1 
    11    1    2 1 
    12   18   16 1 
    13   22   20 ar
    14   15   14 1 
    15   20    5 1 
    16   20   21 ar
    17    5   16 1 
    18    5    6 1 
    19   16   12 1 
    20   16   17 1 
    21   12   14 1 
    22   12   13 1 
