@<TRIPOS>MOLECULE
C:\Users\Praveer\PycharmProjects\pdb_to_mol2_converter\data\pdb\btalna.pdb
   30    30     0     0     0
SMALL
GASTEIGER

@<TRIPOS>ATOM
      1 C1          1.4540    0.1020    0.0400 C.3       1 BTA1        0.0000
      2 H1          1.7630   -0.4600    0.9520 H         1 BTA1        0.0000
      3 O1          1.9640   -0.5500   -1.0860 O.3       1 BTA1        0.0000
      4 HO1         1.6070   -1.4400   -1.0910 H         1 BTA1        0.0000
      5 C5         -0.5800    0.7580    1.0990 C.3       1 BTA1        0.0000
      6 H5         -0.2990    0.1400    1.9860 H         1 BTA1        0.0000
      7 O5          0.0300    0.1620   -0.0650 O.3       1 BTA1        0.0000
      8 C2          1.9880    1.5210    0.0720 C.3       1 BTA1        0.0000
      9 H2          3.1010    1.4650    0.1640 H         1 BTA1        0.0000
     10 N           1.7110    2.2220   -1.1780 N.am      1 BTA1        0.0000
     11 HN          1.1670    1.6930   -1.8190 H         1 BTA1        0.0000
     12 C           2.1160    3.4480   -1.5240 C.2       1 BTA1        0.0000
     13 O           2.8040    4.1570   -0.8020 O.2       1 BTA1        0.0000
     14 CT          1.6770    3.9300   -2.8820 C.3       1 BTA1        0.0000
     15 HT1         0.6470    3.5800   -3.0970 H         1 BTA1        0.0000
     16 HT2         2.3740    3.5470   -3.6560 H         1 BTA1        0.0000
     17 HT3         1.6930    5.0400   -2.8940 H         1 BTA1        0.0000
     18 C3          1.4460    2.1410    1.3550 C.3       1 BTA1        0.0000
     19 H3          1.7460    1.4690    2.1950 H         1 BTA1        0.0000
     20 O3          2.0530    3.3820    1.6700 O.3       1 BTA1        0.0000
     21 HO3         2.1600    3.8830    0.8400 H         1 BTA1        0.0000
     22 C4         -0.0750    2.1820    1.3650 C.3       1 BTA1        0.0000
     23 H4         -0.4140    2.4990    2.3790 H         1 BTA1        0.0000
     24 O4         -0.6240    3.1120    0.4370 O.3       1 BTA1        0.0000
     25 HO4        -1.4380    2.7220    0.0750 H         1 BTA1        0.0000
     26 C6         -2.0880    0.6490    0.9460 C.3       1 BTA1        0.0000
     27 H61        -2.5900    1.1320    1.8150 H         1 BTA1        0.0000
     28 H62        -2.3840   -0.4250    0.9370 H         1 BTA1        0.0000
     29 O6         -2.5600    1.2600   -0.2570 O.3       1 BTA1        0.0000
     30 HO6        -2.2260    0.7610   -1.0140 H         1 BTA1        0.0000
@<TRIPOS>BOND
     1   16   14 1 
     2   15   14 1 
     3   17   14 1 
     4   14   12 1 
     5   11   10 1 
     6   12   10 am
     7   12   13 2 
     8   10    8 1 
     9    4    3 1 
    10    3    1 1 
    11   30   29 1 
    12   29   26 1 
    13    7    1 1 
    14    7    5 1 
    15    1    8 1 
    16    1    2 1 
    17    8    9 1 
    18    8   18 1 
    19   25   24 1 
    20   24   22 1 
    21   21   20 1 
    22   28   26 1 
    23   26    5 1 
    24   26   27 1 
    25    5   22 1 
    26    5    6 1 
    27   18   22 1 
    28   18   20 1 
    29   18   19 1 
    30   22   23 1 
