@<TRIPOS>MOLECULE
C:\Users\Praveer\PycharmProjects\pdb_to_mol2_converter\data\pdb\bte1.pdb
   12    11     0     0     0
SMALL
GASTEIGER

@<TRIPOS>ATOM
      1 C1         -0.0020   -0.0030   -0.0000 C.2       1 BTE1        0.0000
      2 H11        -0.5740   -0.9440   -0.0000 H         1 BTE1        0.0000
      3 H12        -0.5570    0.9480   -0.0010 H         1 BTE1        0.0000
      4 C2          1.3420   -0.0070    0.0000 C.2       1 BTE1        0.0000
      5 H21         1.8700   -0.9750    0.0010 H         1 BTE1        0.0000
      6 C3          2.2160    1.2160   -0.0000 C.3       1 BTE1        0.0000
      7 H31         2.0030    1.8420    0.8960 H         1 BTE1        0.0000
      8 H32         2.0010    1.8420   -0.8960 H         1 BTE1        0.0000
      9 C4          3.7060    0.8450   -0.0020 C.3       1 BTE1        0.0000
     10 H41         3.9670    0.2520   -0.9050 H         1 BTE1        0.0000
     11 H42         3.9690    0.2510    0.9000 H         1 BTE1        0.0000
     12 H43         4.3300    1.7650   -0.0020 H         1 BTE1        0.0000
@<TRIPOS>BOND
     1   10    9 1 
     2    8    6 1 
     3    9   12 1 
     4    9    6 1 
     5    9   11 1 
     6    3    1 1 
     7    1    2 1 
     8    1    4 2 
     9    4    6 1 
    10    4    5 1 
    11    6    7 1 
