@<TRIPOS>MOLECULE
C:\Users\Praveer\PycharmProjects\pdb_to_mol2_converter\data\pdb\bte2.pdb
   12    11     0     0     0
SMALL
GASTEIGER

@<TRIPOS>ATOM
      1 C1         -0.0100    0.0020   -0.0010 C.3       1 BTE1        0.0000
      2 H11        -0.4070   -0.5220    0.8950 H         1 BTE1        0.0000
      3 H12        -0.4050   -0.5220   -0.8980 H         1 BTE1        0.0000
      4 H13        -0.4380    1.0290   -0.0020 H         1 BTE1        0.0000
      5 C2          1.4980    0.0030   -0.0000 C.2       1 BTE1        0.0000
      6 H21         2.0070   -0.9740    0.0010 H         1 BTE1        0.0000
      7 C3          2.2500    1.1150   -0.0000 C.2       1 BTE1        0.0000
      8 H31         1.7410    2.0920   -0.0010 H         1 BTE1        0.0000
      9 C4          3.7580    1.1160    0.0010 C.3       1 BTE1        0.0000
     10 H41         4.1860    0.0890    0.0020 H         1 BTE1        0.0000
     11 H42         4.1530    1.6410    0.8980 H         1 BTE1        0.0000
     12 H43         4.1540    1.6400   -0.8960 H         1 BTE1        0.0000
@<TRIPOS>BOND
     1    3    1 1 
     2   12    9 1 
     3    4    1 1 
     4    1    5 1 
     5    1    2 1 
     6    8    7 1 
     7    5    7 2 
     8    5    6 1 
     9    7    9 1 
    10    9   10 1 
    11    9   11 1 
