@<TRIPOS>MOLECULE
C:\Users\Praveer\PycharmProjects\pdb_to_mol2_converter\data\pdb\btmc.pdb
   22    22     0     0     0
SMALL
GASTEIGER

@<TRIPOS>ATOM
      1 N1          1.3530    0.0050   -0.0090 N.ar      1 BTM1        0.0000
      2 C2          2.0500    1.2440   -0.0420 C.ar      1 BTM1        0.0000
      3 O2          3.2810    1.2360   -0.0310 O.2       1 BTM1        0.0000
      4 N3          1.3420    2.4030   -0.0870 N.ar      1 BTM1        0.0000
      5 C4         -0.0160    2.4160   -0.0990 C.ar      1 BTM1        0.0000
      6 N4         -0.6760    3.6220   -0.1500 N.pl3     1 BTM1        0.0000
      7 C5         -0.7260    1.1670   -0.0600 C.ar      1 BTM1        0.0000
      8 H5         -1.8140    1.1190   -0.0640 H         1 BTM1        0.0000
      9 C6         -0.0070    0.0070   -0.0160 C.ar      1 BTM1        0.0000
     10 H6         -0.5010   -0.9650    0.0150 H         1 BTM1        0.0000
     11 C7         -2.1350    3.6760   -0.2000 C.3       1 BTM1        0.0000
     12 H71        -2.5910    3.1570    0.6730 H         1 BTM1        0.0000
     13 H72        -2.5230    3.2000   -1.1290 H         1 BTM1        0.0000
     14 H73        -2.5040    4.7250   -0.1880 H         1 BTM1        0.0000
     15 C8          0.0870    4.8690   -0.2070 C.3       1 BTM1        0.0000
     16 H81         0.7110    4.9150   -1.1290 H         1 BTM1        0.0000
     17 H82         0.7720    4.9630    0.6670 H         1 BTM1        0.0000
     18 H83        -0.5760    5.7600   -0.2060 H         1 BTM1        0.0000
     19 CM          2.1210   -1.2540    0.0350 C.3       1 BTM1        0.0000
     20 HM1         2.7720   -1.2870    0.9390 H         1 BTM1        0.0000
     21 HM2         2.7890   -1.3390   -0.8540 H         1 BTM1        0.0000
     22 HM3         1.4690   -2.1560    0.0540 H         1 BTM1        0.0000
@<TRIPOS>BOND
     1   13   11 1 
     2   16   15 1 
     3   21   19 1 
     4   15   18 1 
     5   15    6 1 
     6   15   17 1 
     7   11   14 1 
     8   11    6 1 
     9   11   12 1 
    10    6    5 1 
    11    5    4 ar
    12    5    7 ar
    13    4    2 ar
    14    8    7 1 
    15    7    9 ar
    16    2    3 2 
    17    2    1 ar
    18    9    1 ar
    19    9   10 1 
    20    1   19 1 
    21   19   22 1 
    22   19   20 1 
