@<TRIPOS>MOLECULE
C:\Users\Praveer\PycharmProjects\pdb_to_mol2_converter\data\pdb\bton.pdb
   13    12     0     0     0
SMALL
GASTEIGER

@<TRIPOS>ATOM
      1 O1          2.1610   -1.0370   -0.0070 O.2       1 BTO1        0.0000
      2 C1          1.5240    0.0120   -0.0040 C.2       1 BTO1        0.0000
      3 C2          0.0310    0.0090    0.0000 C.3       1 BTO1        0.0000
      4 C3          2.1870    1.3630   -0.0020 C.3       1 BTO1        0.0000
      5 H21        -0.3260   -1.0410   -0.0020 H         1 BTO1        0.0000
      6 H22        -0.3490    0.5260   -0.9040 H         1 BTO1        0.0000
      7 H23        -0.3440    0.5200    0.9110 H         1 BTO1        0.0000
      8 H31         1.8530    1.9100    0.9050 H         1 BTO1        0.0000
      9 H32         1.8320    1.9230   -0.8930 H         1 BTO1        0.0000
     10 C4          3.7260    1.2990   -0.0200 C.3       1 BTO1        0.0000
     11 H41         4.0850    0.7670   -0.9280 H         1 BTO1        0.0000
     12 H42         4.1060    0.7540    0.8720 H         1 BTO1        0.0000
     13 H43         4.1610    2.3210   -0.0180 H         1 BTO1        0.0000
@<TRIPOS>BOND
     1   11   10 1 
     2    6    3 1 
     3    9    4 1 
     4   10   13 1 
     5   10    4 1 
     6   10   12 1 
     7    1    2 2 
     8    2    4 1 
     9    2    3 1 
    10    4    8 1 
    11    5    3 1 
    12    3    7 1 
