@<TRIPOS>MOLECULE
C:\Users\Praveer\PycharmProjects\pdb_to_mol2_converter\data\pdb\btyv.pdb
   22    22     0     0     0
SMALL
GASTEIGER

@<TRIPOS>ATOM
      1 C1          1.3880   -0.0020    0.1050 C.3       1 BTY1        0.0000
      2 H1          1.7430   -0.4270    1.0710 H         1 BTY1        0.0000
      3 O1          1.8780   -0.8010   -0.9310 O.3       1 BTY1        0.0000
      4 HO1         1.4580   -0.4330   -1.7130 H         1 BTY1        0.0000
      5 C5         -0.5980    0.7540    1.1390 C.3       1 BTY1        0.0000
      6 H5         -0.2570    0.3370    2.1160 H         1 BTY1        0.0000
      7 O5         -0.0380   -0.0230    0.0740 O.3       1 BTY1        0.0000
      8 C2          1.9130    1.4300   -0.0530 C.3       1 BTY1        0.0000
      9 H2          3.0250    1.3980    0.0540 H         1 BTY1        0.0000
     10 O2          1.6140    2.0320   -1.3120 O.3       1 BTY1        0.0000
     11 HO2         2.4250    2.1870   -1.8050 H         1 BTY1        0.0000
     12 C3          1.3510    2.3040    1.0270 C.3       1 BTY1        0.0000
     13 H31         1.6730    3.3610    0.8860 H         1 BTY1        0.0000
     14 H32         1.7450    1.9670    2.0150 H         1 BTY1        0.0000
     15 C4         -0.1420    2.2080    1.0360 C.3       1 BTY1        0.0000
     16 H4         -0.5530    2.6270    0.0850 H         1 BTY1        0.0000
     17 O4         -0.6300    2.9740    2.1230 O.3       1 BTY1        0.0000
     18 HO4        -1.0460    3.7720    1.7890 H         1 BTY1        0.0000
     19 C6         -2.1240    0.5800    1.0460 C.3       1 BTY1        0.0000
     20 H61        -2.6270    1.1280    1.8700 H         1 BTY1        0.0000
     21 H62        -2.3900   -0.4960    1.1160 H         1 BTY1        0.0000
     22 H63        -2.4950    0.9710    0.0750 H         1 BTY1        0.0000
@<TRIPOS>BOND
     1   11   10 1 
     2    4    3 1 
     3   10    8 1 
     4    3    1 1 
     5    8    9 1 
     6    8    1 1 
     7    8   12 1 
     8    7    1 1 
     9    7    5 1 
    10   22   19 1 
    11   16   15 1 
    12    1    2 1 
    13   13   12 1 
    14   12   15 1 
    15   12   14 1 
    16   15    5 1 
    17   15   17 1 
    18   19   21 1 
    19   19    5 1 
    20   19   20 1 
    21    5    6 1 
    22   18   17 1 
