@<TRIPOS>MOLECULE
C:\Users\Praveer\PycharmProjects\pdb_to_mol2_converter\data\pdb\bu8u.pdb
   24    24     0     0     0
SMALL
GASTEIGER

@<TRIPOS>ATOM
      1 N1          1.4520   -0.0500   -0.0590 N.ar      1 BU81        0.0000
      2 C2          2.1450    1.1850   -0.0060 C.ar      1 BU81        0.0000
      3 S2          3.7670    1.4160   -0.2200 S.2       1 BU81        0.0000
      4 N3          1.3220    2.2680    0.2550 N.ar      1 BU81        0.0000
      5 H3          1.7680    3.1700    0.2850 H         1 BU81        0.0000
      6 C4         -0.0370    2.2620    0.4610 C.ar      1 BU81        0.0000
      7 O4         -0.5990    3.3210    0.7380 O.2       1 BU81        0.0000
      8 C5         -0.6910    0.9800    0.3920 C.ar      1 BU81        0.0000
      9 C6          0.0960   -0.1210    0.1200 C.ar      1 BU81        0.0000
     10 H6         -0.3300   -1.1210    0.0190 H         1 BU81        0.0000
     11 C          -2.1590    0.9650    0.5650 C.3       1 BU81        0.0000
     12 HC1        -2.5640   -0.0610    0.5680 H         1 BU81        0.0000
     13 HC2        -2.6450    1.6070   -0.1930 H         1 BU81        0.0000
     14 N          -2.4620    1.5670    1.9060 N.4       1 BU81        0.0000
     15 HN1        -2.0360    2.4960    1.8950 H         1 BU81        0.0000
     16 HN2        -1.9630    1.0710    2.6290 H         1 BU81        0.0000
     17 CA         -3.9190    1.6900    2.2610 C.3       1 BU81        0.0000
     18 HA1        -4.3330    0.6620    2.3290 H         1 BU81        0.0000
     19 HA2        -4.4080    2.2790    1.4580 H         1 BU81        0.0000
     20 HA3        -3.9720    2.2150    3.2400 H         1 BU81        0.0000
     21 CM          2.2260   -1.2720   -0.3340 C.3       1 BU81        0.0000
     22 HM1         3.0090   -1.4390    0.4440 H         1 BU81        0.0000
     23 HM2         2.7460   -1.2060   -1.3180 H         1 BU81        0.0000
     24 HM3         1.5970   -2.1910   -0.3610 H         1 BU81        0.0000
@<TRIPOS>BOND
     1   23   21 1 
     2   24   21 1 
     3   21    1 1 
     4   21   22 1 
     5    3    2 2 
     6   13   11 1 
     7    1    2 ar
     8    1    9 ar
     9    2    4 ar
    10   10    9 1 
    11    9    8 ar
    12    4    5 1 
    13    4    6 ar
    14    8    6 ar
    15    8   11 1 
    16    6    7 2 
    17   11   12 1 
    18   11   14 1 
    19   19   17 1 
    20   15   14 1 
    21   14   17 1 
    22   14   16 1 
    23   17   18 1 
    24   17   20 1 
