@<TRIPOS>MOLECULE
C:\Users\Praveer\PycharmProjects\pdb_to_mol2_converter\data\pdb\buta.pdb
   14    13     0     0     0
SMALL
GASTEIGER

@<TRIPOS>ATOM
      1 H11        -0.3900   -1.0340    0.0040 H         1 BUT1        0.0000
      2 H12        -0.3740    0.5250   -0.9030 H         1 BUT1        0.0000
      3 H13        -0.3750    0.5310    0.8990 H         1 BUT1        0.0000
      4 C1          0.0100    0.0030    0.0010 C.3       1 BUT1        0.0000
      5 H21         1.9040   -0.5640   -0.8930 H         1 BUT1        0.0000
      6 H22         1.9020   -0.5570    0.9020 H         1 BUT1        0.0000
      7 C2          1.5410   -0.0090    0.0020 C.3       1 BUT1        0.0000
      8 H31         1.7990    1.9480    0.8930 H         1 BUT1        0.0000
      9 H32         1.8000    1.9420   -0.9020 H         1 BUT1        0.0000
     10 C3          2.1620    1.3930   -0.0030 C.3       1 BUT1        0.0000
     11 H41         4.0770    0.8530   -0.9020 H         1 BUT1        0.0000
     12 H42         4.0770    0.8590    0.9000 H         1 BUT1        0.0000
     13 H43         4.0920    2.4180   -0.0060 H         1 BUT1        0.0000
     14 C4          3.6930    1.3810   -0.0020 C.3       1 BUT1        0.0000
@<TRIPOS>BOND
     1    2    4 1 
     2    9   10 1 
     3   11   14 1 
     4    5    7 1 
     5   13   14 1 
     6   10   14 1 
     7   10    7 1 
     8   10    8 1 
     9   14   12 1 
    10    4    7 1 
    11    4    1 1 
    12    4    3 1 
    13    7    6 1 
