@<TRIPOS>MOLECULE
C:\Users\Praveer\PycharmProjects\pdb_to_mol2_converter\data\pdb\bxulf.pdb
   20    20     0     0     0
SMALL
GASTEIGER

@<TRIPOS>ATOM
      1 O5          1.4440    0.1270   -0.3900 O.3       1 BXU1        0.0000
      2 C2          1.9610    1.4450   -0.1650 C.3       1 BXU1        0.0000
      3 O2          2.4430    2.0640   -1.3240 O.3       1 BXU1        0.0000
      4 HO2         1.8740    2.8310   -1.4460 H         1 BXU1        0.0000
      5 C5          0.1010    0.0660    0.1110 C.3       1 BXU1        0.0000
      6 H51         0.1400   -0.2840    1.1550 H         1 BXU1        0.0000
      7 H52        -0.4700   -0.6680   -0.4770 H         1 BXU1        0.0000
      8 C1          3.1380    1.2660    0.7880 C.3       1 BXU1        0.0000
      9 H11         3.9120    0.6340    0.2950 H         1 BXU1        0.0000
     10 H12         2.7910    0.7160    1.6910 H         1 BXU1        0.0000
     11 O1          3.7380    2.5020    1.2170 O.3       1 BXU1        0.0000
     12 HO1         4.2050    2.8920    0.4680 H         1 BXU1        0.0000
     13 C3          0.7970    2.2580    0.4910 C.3       1 BXU1        0.0000
     14 H3          0.8590    2.1240    1.5960 H         1 BXU1        0.0000
     15 O3          0.7340    3.6480    0.2120 O.3       1 BXU1        0.0000
     16 HO3         1.3440    4.1130    0.8000 H         1 BXU1        0.0000
     17 C4         -0.4120    1.4820   -0.0240 C.3       1 BXU1        0.0000
     18 H4         -0.6270    1.7260   -1.0890 H         1 BXU1        0.0000
     19 O4         -1.5690    1.6280    0.7580 O.3       1 BXU1        0.0000
     20 HO4        -1.9090    2.5220    0.6410 H         1 BXU1        0.0000
@<TRIPOS>BOND
     1    4    3 1 
     2    3    2 1 
     3   18   17 1 
     4    7    5 1 
     5    1    2 1 
     6    1    5 1 
     7    2   13 1 
     8    2    8 1 
     9   17    5 1 
    10   17   13 1 
    11   17   19 1 
    12    5    6 1 
    13   15   13 1 
    14   15   16 1 
    15    9    8 1 
    16   12   11 1 
    17   13   14 1 
    18   20   19 1 
    19    8   11 1 
    20    8   10 1 
