@<TRIPOS>MOLECULE
C:\Users\Praveer\PycharmProjects\pdb_to_mol2_converter\data\pdb\bxyf.pdb
   20    20     0     0     0
SMALL
GASTEIGER

@<TRIPOS>ATOM
      1 O4          1.3510    0.0060    0.2450 O.3       1 BXY1        0.0000
      2 C1          1.8730    1.3170    0.0180 C.3       1 BXY1        0.0000
      3 H1          2.6750    1.4970    0.7660 H         1 BXY1        0.0000
      4 O1          2.4220    1.4250   -1.2570 O.3       1 BXY1        0.0000
      5 HO1         1.6730    1.3200   -1.8570 H         1 BXY1        0.0000
      6 C4         -0.0770    0.0360    0.0750 C.3       1 BXY1        0.0000
      7 H4         -0.5180   -0.1290    1.0840 H         1 BXY1        0.0000
      8 C5         -0.4500   -1.0950   -0.8520 C.3       1 BXY1        0.0000
      9 H51        -0.2360   -2.0750   -0.3670 H         1 BXY1        0.0000
     10 H52         0.1750   -1.0430   -1.7740 H         1 BXY1        0.0000
     11 O5         -1.8280   -1.0240   -1.2300 O.3       1 BXY1        0.0000
     12 HO5        -2.3880   -1.4050   -0.5430 H         1 BXY1        0.0000
     13 C2          0.6910    2.2860    0.1890 C.3       1 BXY1        0.0000
     14 H2          0.8410    3.2390   -0.3630 H         1 BXY1        0.0000
     15 O2          0.4150    2.5830    1.5460 O.3       1 BXY1        0.0000
     16 HO2         0.8440    3.4070    1.8020 H         1 BXY1        0.0000
     17 C3         -0.4330    1.4480   -0.4130 C.3       1 BXY1        0.0000
     18 H3         -1.4320    1.7640   -0.0420 H         1 BXY1        0.0000
     19 O3         -0.4450    1.5210   -1.8200 O.3       1 BXY1        0.0000
     20 HO3        -1.0970    0.8720   -2.1300 H         1 BXY1        0.0000
@<TRIPOS>BOND
     1   20   19 1 
     2    5    4 1 
     3   19   17 1 
     4   10    8 1 
     5    4    2 1 
     6   11    8 1 
     7   11   12 1 
     8    8    9 1 
     9    8    6 1 
    10   17   18 1 
    11   17    6 1 
    12   17   13 1 
    13   14   13 1 
    14    2   13 1 
    15    2    1 1 
    16    2    3 1 
    17    6    1 1 
    18    6    7 1 
    19   13   15 1 
    20   15   16 1 
