@<TRIPOS>MOLECULE
C:\Users\Praveer\PycharmProjects\pdb_to_mol2_converter\data\pdb\bxyl.pdb
   20    20     0     0     0
SMALL
GASTEIGER

@<TRIPOS>ATOM
      1 C1          1.4420    0.0330    0.0190 C.3       1 BXY1        0.0000
      2 H1          1.7500   -0.4680    0.9670 H         1 BXY1        0.0000
      3 O1          1.9670   -0.6990   -1.0520 O.3       1 BXY1        0.0000
      4 HO1         1.4810   -0.4170   -1.8310 H         1 BXY1        0.0000
      5 C5         -0.5870    0.7050    1.0330 C.3       1 BXY1        0.0000
      6 H51        -0.3260    0.1760    1.9770 H         1 BXY1        0.0000
      7 H52        -1.6940    0.6600    0.9210 H         1 BXY1        0.0000
      8 O5          0.0210    0.0460   -0.0870 O.3       1 BXY1        0.0000
      9 C2          1.9670    1.4630   -0.0050 C.3       1 BXY1        0.0000
     10 H2          1.6310    1.9370   -0.9590 H         1 BXY1        0.0000
     11 O2          3.3990    1.5230    0.0300 O.3       1 BXY1        0.0000
     12 HO2         3.7460    0.8490   -0.5690 H         1 BXY1        0.0000
     13 C3          1.3630    2.2430    1.1470 C.3       1 BXY1        0.0000
     14 H3          1.7130    1.7810    2.1030 H         1 BXY1        0.0000
     15 O3          1.7990    3.6010    1.1400 O.3       1 BXY1        0.0000
     16 HO3         2.7570    3.5860    1.0100 H         1 BXY1        0.0000
     17 C4         -0.1470    2.1530    1.1000 C.3       1 BXY1        0.0000
     18 H4         -0.5100    2.6750    0.1810 H         1 BXY1        0.0000
     19 O4         -0.7390    2.7760    2.2280 O.3       1 BXY1        0.0000
     20 HO4        -0.3350    3.6490    2.3100 H         1 BXY1        0.0000
@<TRIPOS>BOND
     1    4    3 1 
     2    3    1 1 
     3   10    9 1 
     4   12   11 1 
     5    8    1 1 
     6    8    5 1 
     7    9    1 1 
     8    9   11 1 
     9    9   13 1 
    10    1    2 1 
    11   18   17 1 
    12    7    5 1 
    13   16   15 1 
    14    5   17 1 
    15    5    6 1 
    16   17   13 1 
    17   17   19 1 
    18   15   13 1 
    19   13   14 1 
    20   19   20 1 
