@<TRIPOS>MOLECULE
C:\Users\Praveer\PycharmProjects\pdb_to_mol2_converter\data\pdb\byyg.pdb
   50    52     0     0     0
SMALL
GASTEIGER

@<TRIPOS>ATOM
      1 N9          1.3980    0.0030   -0.0110 N.ar      1 BYY1        0.0000
      2 C8          1.7690    1.3280   -0.0200 C.ar      1 BYY1        0.0000
      3 H8          2.8160    1.6340   -0.0280 H         1 BYY1        0.0000
      4 N7          0.7440    2.1590   -0.0220 N.ar      1 BYY1        0.0000
      5 C5         -0.3870    1.3460   -0.0160 C.ar      1 BYY1        0.0000
      6 C6         -1.7590    1.7010   -0.0570 C.ar      1 BYY1        0.0000
      7 O6         -2.1720    2.8690   -0.0260 O.2       1 BYY1        0.0000
      8 N1         -2.6330    0.5770   -0.1990 N.ar      1 BYY1        0.0000
      9 C2         -2.2240   -0.7660   -0.1850 C.ar      1 BYY1        0.0000
     10 N2         -3.2670   -1.5940   -0.3720 N.ar      1 BYY1        0.0000
     11 N3         -0.8840   -1.0810    0.0340 N.ar      1 BYY1        0.0000
     12 C4          0.0040    0.0000    0.0030 C.ar      1 BYY1        0.0000
     13 C12        -4.0030    0.5630   -0.4270 C.ar      1 BYY1        0.0000
     14 C11        -4.3650   -0.7660   -0.5080 C.ar      1 BYY1        0.0000
     15 C3         -0.5590   -2.4560    0.4540 C.3       1 BYY1        0.0000
     16 H31        -0.0520   -3.0140   -0.3660 H         1 BYY1        0.0000
     17 H32        -1.4620   -3.0460    0.7340 H         1 BYY1        0.0000
     18 H33         0.1090   -2.4650    1.3440 H         1 BYY1        0.0000
     19 C10        -5.6610   -1.4740   -0.7390 C.3       1 BYY1        0.0000
     20 H101       -5.6540   -2.4570   -0.2210 H         1 BYY1        0.0000
     21 H102       -5.8000   -1.6450   -1.8260 H         1 BYY1        0.0000
     22 H103       -6.5080   -0.8850   -0.3400 H         1 BYY1        0.0000
     23 C13        -4.8230    1.8350   -0.6150 C.3       1 BYY1        0.0000
     24 H131       -4.3670    2.4140   -1.4530 H         1 BYY1        0.0000
     25 H132       -4.7060    2.4560    0.3030 H         1 BYY1        0.0000
     26 C14        -6.3300    1.7030   -0.9110 C.3       1 BYY1        0.0000
     27 H141       -6.8360    1.2530   -0.0280 H         1 BYY1        0.0000
     28 H142       -6.4810    1.0340   -1.7880 H         1 BYY1        0.0000
     29 C15        -7.0120    3.0590   -1.2290 C.3       1 BYY1        0.0000
     30 H15        -6.5490    3.4770   -2.1520 H         1 BYY1        0.0000
     31 N20        -8.4220    2.8690   -1.4950 N.am      1 BYY1        0.0000
     32 H20        -8.8720    2.0770   -1.0970 H         1 BYY1        0.0000
     33 C21        -9.2080    3.9180   -1.8590 C.2       1 BYY1        0.0000
     34 O22        -8.8250    5.0680   -2.0340 O.2       1 BYY1        0.0000
     35 O23       -10.4830    3.5040   -1.9840 O.3       1 BYY1        0.0000
     36 C24       -11.3930    4.5560   -2.3480 C.3       1 BYY1        0.0000
     37 H241      -11.1160    4.9930   -3.3340 H         1 BYY1        0.0000
     38 H242      -11.3920    5.3620   -1.5820 H         1 BYY1        0.0000
     39 H243      -12.4220    4.1470   -2.4250 H         1 BYY1        0.0000
     40 C16        -6.7500    4.0590   -0.0630 C.2       1 BYY1        0.0000
     41 O17        -7.2070    3.9580    1.0650 O.2       1 BYY1        0.0000
     42 O18        -5.8890    5.0090   -0.4510 O.3       1 BYY1        0.0000
     43 C19        -5.5450    5.9110    0.6120 C.3       1 BYY1        0.0000
     44 H191       -5.0560    5.3640    1.4500 H         1 BYY1        0.0000
     45 H192       -6.4510    6.4300    0.9980 H         1 BYY1        0.0000
     46 H193       -4.8340    6.6790    0.2380 H         1 BYY1        0.0000
     47 CM          2.3100   -1.1530   -0.0110 C.3       1 BYY1        0.0000
     48 HM1         2.2330   -1.7190    0.9430 H         1 BYY1        0.0000
     49 HM2         3.3710   -0.8390   -0.1290 H         1 BYY1        0.0000
     50 HM3         2.0680   -1.8410   -0.8500 H         1 BYY1        0.0000
@<TRIPOS>BOND
     1   37   36 1 
     2   39   36 1 
     3   36   35 1 
     4   36   38 1 
     5   30   29 1 
     6   34   33 2 
     7   35   33 1 
     8   33   31 am
     9   21   19 1 
    10   28   26 1 
    11   31   29 1 
    12   31   32 1 
    13   24   23 1 
    14   29   26 1 
    15   29   40 1 
    16   26   23 1 
    17   26   27 1 
    18   50   47 1 
    19   19   14 1 
    20   19   22 1 
    21   19   20 1 
    22   23   13 1 
    23   23   25 1 
    24   14   13 ar
    25   14   10 ar
    26   42   40 1 
    27   42   43 1 
    28   13    8 ar
    29   10    9 ar
    30   16   15 1 
    31    8    9 ar
    32    8    6 ar
    33    9   11 ar
    34   49   47 1 
    35   40   41 2 
    36    6    7 2 
    37    6    5 ar
    38    3    2 1 
    39    4    2 ar
    40    4    5 ar
    41    2    1 ar
    42    5   12 ar
    43    1   47 1 
    44    1   12 ar
    45   47   48 1 
    46   12   11 ar
    47   11   15 1 
    48   46   43 1 
    49   15   17 1 
    50   15   18 1 
    51   43   45 1 
    52   43   44 1 
