@<TRIPOS>MOLECULE
C:\Users\Praveer\PycharmProjects\pdb_to_mol2_converter\data\pdb\bzaa.pdb
   18    18     0     0     0
SMALL
GASTEIGER

@<TRIPOS>ATOM
      1 C1          1.3950   -0.0010   -0.0060 C.ar      1 BZA1        0.0000
      2 H1          1.9340   -0.9370   -0.0140 H         1 BZA1        0.0000
      3 C2          2.0970    1.2120   -0.0080 C.ar      1 BZA1        0.0000
      4 H2          3.1780    1.2100   -0.0160 H         1 BZA1        0.0000
      5 C3          1.3990    2.4260   -0.0050 C.ar      1 BZA1        0.0000
      6 H3          1.9400    3.3610   -0.0110 H         1 BZA1        0.0000
      7 C4         -0.0030    2.4280    0.0020 C.ar      1 BZA1        0.0000
      8 H4         -0.5390    3.3640   -0.0010 H         1 BZA1        0.0000
      9 C5         -0.7120    1.2160    0.0070 C.ar      1 BZA1        0.0000
     10 C6         -0.0060    0.0020    0.0010 C.ar      1 BZA1        0.0000
     11 H6         -0.5450   -0.9340   -0.0060 H         1 BZA1        0.0000
     12 C7         -2.2160    1.2200    0.0130 C.3       1 BZA1        0.0000
     13 H71        -2.5740    2.1200    0.5550 H         1 BZA1        0.0000
     14 H72        -2.5830    0.3130    0.5370 H         1 BZA1        0.0000
     15 C8         -2.7500    1.2270   -1.4060 C.2       1 BZA1        0.0000
     16 O8         -2.1370    1.0300   -2.4390 O.2       1 BZA1        0.0000
     17 O9         -4.1030    1.4780   -1.4520 O.3       1 BZA1        0.0000
     18 H9         -4.3680    1.4630   -2.3710 H         1 BZA1        0.0000
@<TRIPOS>BOND
     1   16   15 2 
     2   18   17 1 
     3   17   15 1 
     4   15   12 1 
     5    4    3 1 
     6    2    1 1 
     7    6    5 1 
     8    3    1 ar
     9    3    5 ar
    10    1   10 ar
    11   11   10 1 
    12    5    7 ar
    13    8    7 1 
    14   10    9 ar
    15    7    9 ar
    16    9   12 1 
    17   12   14 1 
    18   12   13 1 
