@<TRIPOS>MOLECULE
C:\Users\Praveer\PycharmProjects\pdb_to_mol2_converter\data\pdb\bzac.pdb
   17    17     0     0     0
SMALL
GASTEIGER

@<TRIPOS>ATOM
      1 C1          1.4060    0.0000   -0.0060 C.ar      1 BZA1        0.0000
      2 H1          1.9410   -0.9370   -0.0020 H         1 BZA1        0.0000
      3 C2          2.1050    1.2150   -0.0050 C.ar      1 BZA1        0.0000
      4 H2          3.1850    1.2150   -0.0010 H         1 BZA1        0.0000
      5 C3          1.4030    2.4280    0.0050 C.ar      1 BZA1        0.0000
      6 H3          1.9390    3.3650    0.0150 H         1 BZA1        0.0000
      7 C4          0.0010    2.4240    0.0090 C.ar      1 BZA1        0.0000
      8 H4         -0.5480    3.3530    0.0260 H         1 BZA1        0.0000
      9 C6          0.0050    0.0020   -0.0050 C.ar      1 BZA1        0.0000
     10 H6         -0.5490   -0.9260    0.0160 H         1 BZA1        0.0000
     11 C5         -0.7080    1.2120    0.0050 C.ar      1 BZA1        0.0000
     12 C7         -2.2170    1.2140   -0.0350 C.3       1 BZA1        0.0000
     13 H71        -2.5510    0.4910   -0.8070 H         1 BZA1        0.0000
     14 H72        -2.5820    2.2250   -0.3100 H         1 BZA1        0.0000
     15 C8         -2.8380    0.8050    1.2930 C.2       1 BZA1        0.0000
     16 O81        -3.5520    1.6820    1.8450 O.co2     1 BZA1        0.0000
     17 O82        -2.6010   -0.3640    1.6900 O.co2     1 BZA1        0.0000
@<TRIPOS>BOND
     1   13   12 1 
     2   14   12 1 
     3   12   11 1 
     4   12   15 1 
     5    1    3 ar
     6    1    9 ar
     7    1    2 1 
     8    3    4 1 
     9    3    5 ar
    10    9   11 ar
    11    9   10 1 
    12    5    7 ar
    13    5    6 1 
    14   11    7 ar
    15    7    8 1 
    16   15   17 ar
    17   15   16 ar
