@<TRIPOS>MOLECULE
C:\Users\Praveer\PycharmProjects\pdb_to_mol2_converter\data\pdb\bzam.pdb
   18    18     0     0     0
SMALL
GASTEIGER

@<TRIPOS>ATOM
      1 C1          1.3990    0.0000    0.0040 C.ar      1 BZA1        0.0000
      2 H1          1.9450   -0.9340   -0.0010 H         1 BZA1        0.0000
      3 C2          2.0990    1.2130    0.0050 C.ar      1 BZA1        0.0000
      4 H2          3.1810    1.2120    0.0020 H         1 BZA1        0.0000
      5 C3          1.4010    2.4270    0.0000 C.ar      1 BZA1        0.0000
      6 H3          1.9470    3.3600   -0.0070 H         1 BZA1        0.0000
      7 C4         -0.0000    2.4290   -0.0020 C.ar      1 BZA1        0.0000
      8 H4         -0.5240    3.3730   -0.0150 H         1 BZA1        0.0000
      9 C6         -0.0010   -0.0000    0.0020 C.ar      1 BZA1        0.0000
     10 H6         -0.5260   -0.9450   -0.0080 H         1 BZA1        0.0000
     11 C5         -0.7120    1.2150    0.0020 C.ar      1 BZA1        0.0000
     12 C7         -2.2200    1.2150    0.0270 C.3       1 BZA1        0.0000
     13 H71        -2.5960    0.3160   -0.4870 H         1 BZA1        0.0000
     14 H72        -2.5950    2.1140   -0.4890 H         1 BZA1        0.0000
     15 N8         -2.7120    1.2170    1.4450 N.4       1 BZA1        0.0000
     16 H81        -2.3580    2.0620    1.9410 H         1 BZA1        0.0000
     17 H82        -2.3590    0.3730    1.9430 H         1 BZA1        0.0000
     18 H83        -3.7520    1.2180    1.4730 H         1 BZA1        0.0000
@<TRIPOS>BOND
     1   14   12 1 
     2   13   12 1 
     3    8    7 1 
     4   10    9 1 
     5    6    5 1 
     6    7    5 ar
     7    7   11 ar
     8    2    1 1 
     9    5    3 ar
    10    4    3 1 
    11    9   11 ar
    12    9    1 ar
    13   11   12 1 
    14    1    3 ar
    15   12   15 1 
    16   15   18 1 
    17   15   16 1 
    18   15   17 1 
