@<TRIPOS>MOLECULE
C:\Users\Praveer\PycharmProjects\pdb_to_mol2_converter\data\pdb\bzha.pdb
   18    18     0     0     0
SMALL
GASTEIGER

@<TRIPOS>ATOM
      1 C1          1.4100   -0.0110    0.0170 C.ar      1 BZH1        0.0000
      2 H1          1.9330   -0.9560    0.0430 H         1 BZH1        0.0000
      3 C2          2.1260    1.1910   -0.0200 C.ar      1 BZH1        0.0000
      4 H2          3.2060    1.1770   -0.0240 H         1 BZH1        0.0000
      5 C3          1.4400    2.4110   -0.0460 C.ar      1 BZH1        0.0000
      6 H3          1.9880    3.3410   -0.0720 H         1 BZH1        0.0000
      7 C4          0.0400    2.4270   -0.0370 C.ar      1 BZH1        0.0000
      8 H4         -0.4830    3.3720   -0.0570 H         1 BZH1        0.0000
      9 C5         -0.7000    1.2250    0.0010 C.ar      1 BZH1        0.0000
     10 C6          0.0110    0.0080    0.0250 C.ar      1 BZH1        0.0000
     11 H6         -0.5410   -0.9220    0.0670 H         1 BZH1        0.0000
     12 C7         -2.2350    1.1940   -0.0320 C.3       1 BZH1        0.0000
     13 H7         -2.5700    0.5260   -0.8540 H         1 BZH1        0.0000
     14 O7         -2.8520    2.4750   -0.2710 O.3       1 BZH1        0.0000
     15 HO7        -3.2760    2.5800    0.6030 H         1 BZH1        0.0000
     16 C8         -2.8090    0.5890    1.2930 C.2       1 BZH1        0.0000
     17 O81        -2.6590   -0.6510    1.4570 O.co2     1 BZH1        0.0000
     18 O82        -3.3960    1.3970    2.0690 O.co2     1 BZH1        0.0000
@<TRIPOS>BOND
     1   13   12 1 
     2   14   12 1 
     3   14   15 1 
     4    6    5 1 
     5    8    7 1 
     6    5    7 ar
     7    5    3 ar
     8    7    9 ar
     9   12    9 1 
    10   12   16 1 
    11    4    3 1 
    12    3    1 ar
    13    9   10 ar
    14    1   10 ar
    15    1    2 1 
    16   10   11 1 
    17   16   17 ar
    18   16   18 ar
