@<TRIPOS>MOLECULE
C:\Users\Praveer\PycharmProjects\pdb_to_mol2_converter\data\pdb\bzhe.pdb
   19    19     0     0     0
SMALL
GASTEIGER

@<TRIPOS>ATOM
      1 C1          1.4030   -0.0010   -0.0010 C.ar      1 BZH1        0.0000
      2 H1          1.9420   -0.9380    0.0030 H         1 BZH1        0.0000
      3 C2          2.1070    1.2100    0.0010 C.ar      1 BZH1        0.0000
      4 H2          3.1880    1.2070    0.0050 H         1 BZH1        0.0000
      5 C3          1.4100    2.4250    0.0020 C.ar      1 BZH1        0.0000
      6 H3          1.9520    3.3590    0.0090 H         1 BZH1        0.0000
      7 C4          0.0100    2.4280   -0.0010 C.ar      1 BZH1        0.0000
      8 H4         -0.5260    3.3650    0.0070 H         1 BZH1        0.0000
      9 C5         -0.7100    1.2160   -0.0130 C.ar      1 BZH1        0.0000
     10 C6          0.0030    0.0030   -0.0040 C.ar      1 BZH1        0.0000
     11 H6         -0.5330   -0.9350   -0.0000 H         1 BZH1        0.0000
     12 C7         -2.2280    1.1920    0.0040 C.3       1 BZH1        0.0000
     13 H7         -2.6210    0.2030   -0.3320 H         1 BZH1        0.0000
     14 O7         -2.8350    2.2060   -0.7870 O.3       1 BZH1        0.0000
     15 HO7        -2.5650    2.0320   -1.6920 H         1 BZH1        0.0000
     16 C8         -2.6790    1.4210    1.4550 C.3       1 BZH1        0.0000
     17 H81        -2.3500    2.4190    1.8150 H         1 BZH1        0.0000
     18 H82        -2.2610    0.6440    2.1290 H         1 BZH1        0.0000
     19 H83        -3.7870    1.3820    1.5200 H         1 BZH1        0.0000
@<TRIPOS>BOND
     1   15   14 1 
     2   14   12 1 
     3   13   12 1 
     4    9   10 ar
     5    9    7 ar
     6    9   12 1 
     7   10    1 ar
     8   10   11 1 
     9    1    3 ar
    10    1    2 1 
    11    7    5 ar
    12    7    8 1 
    13    3    5 ar
    14    3    4 1 
    15    5    6 1 
    16   12   16 1 
    17   16   19 1 
    18   16   17 1 
    19   16   18 1 
