@<TRIPOS>MOLECULE
C:\Users\Praveer\PycharmProjects\pdb_to_mol2_converter\data\pdb\bzma.pdb
   21    21     0     0     0
SMALL
GASTEIGER

@<TRIPOS>ATOM
      1 C1          1.3980   -0.0010   -0.0060 C.ar      1 BZM1        0.0000
      2 H1          1.9420   -0.9360   -0.0030 H         1 BZM1        0.0000
      3 C2          2.0990    1.2100   -0.0070 C.ar      1 BZM1        0.0000
      4 H2          3.1810    1.2090   -0.0060 H         1 BZM1        0.0000
      5 C3          1.4020    2.4240   -0.0010 C.ar      1 BZM1        0.0000
      6 H3          1.9490    3.3570    0.0060 H         1 BZM1        0.0000
      7 C4          0.0020    2.4290    0.0020 C.ar      1 BZM1        0.0000
      8 H4         -0.5200    3.3750    0.0160 H         1 BZM1        0.0000
      9 C5         -0.7120    1.2150   -0.0010 C.ar      1 BZM1        0.0000
     10 C6         -0.0020   -0.0010   -0.0030 C.ar      1 BZM1        0.0000
     11 H6         -0.5270   -0.9460    0.0070 H         1 BZM1        0.0000
     12 C7         -2.2120    1.2180   -0.0240 C.3       1 BZM1        0.0000
     13 H71        -2.6130    2.1290    0.4520 H         1 BZM1        0.0000
     14 H72        -2.6170    0.3050    0.4450 H         1 BZM1        0.0000
     15 N8         -2.6970    1.2250   -1.4560 N.4       1 BZM1        0.0000
     16 H81        -2.2900    0.4250   -1.9220 H         1 BZM1        0.0000
     17 H82        -2.2800    2.0230   -1.9180 H         1 BZM1        0.0000
     18 C9         -4.1900    1.2350   -1.6360 C.3       1 BZM1        0.0000
     19 H91        -4.5760    2.1560   -1.1510 H         1 BZM1        0.0000
     20 H92        -4.5880    0.3190   -1.1510 H         1 BZM1        0.0000
     21 H93        -4.3900    1.2370   -2.7290 H         1 BZM1        0.0000
@<TRIPOS>BOND
     1   21   18 1 
     2   16   15 1 
     3   17   15 1 
     4   18   15 1 
     5   18   19 1 
     6   18   20 1 
     7   15   12 1 
     8   12    9 1 
     9   12   14 1 
    10   12   13 1 
    11    3    1 ar
    12    3    4 1 
    13    3    5 ar
    14    1    2 1 
    15    1   10 ar
    16   10    9 ar
    17   10   11 1 
    18    5    7 ar
    19    5    6 1 
    20    9    7 ar
    21    7    8 1 
