@<TRIPOS>MOLECULE
C:\Users\Praveer\PycharmProjects\pdb_to_mol2_converter\data\pdb\c3.pdb
    9     9     0     0     0
SMALL
GASTEIGER

@<TRIPOS>ATOM
      1 C1          0.3430    0.3410    0.0000 C.3       1 C31         0.0000
      2 H11        -0.2120    0.2970    0.9240 H         1 C31         0.0000
      3 H12        -0.2120    0.2970   -0.9240 H         1 C31         0.0000
      4 C2          1.7170   -0.3150    0.0000 C.3       1 C31         0.0000
      5 H21         2.0330   -0.7740   -0.9240 H         1 C31         0.0000
      6 H22         2.0330   -0.7740    0.9240 H         1 C31         0.0000
      7 C3          1.5980    1.2040    0.0000 C.3       1 C31         0.0000
      8 H31         1.8380    1.7060    0.9240 H         1 C31         0.0000
      9 H32         1.8380    1.7060   -0.9240 H         1 C31         0.0000
@<TRIPOS>BOND
     1    3    1 1 
     2    5    4 1 
     3    9    7 1 
     4    1    4 1 
     5    1    7 1 
     6    1    2 1 
     7    4    7 1 
     8    4    6 1 
     9    7    8 1 
