@<TRIPOS>MOLECULE
C:\Users\Praveer\PycharmProjects\pdb_to_mol2_converter\data\pdb\c34h.pdb
   18    18     0     0     0
SMALL
GASTEIGER

@<TRIPOS>ATOM
      1 N1          1.4170   -0.0030   -0.0200 N.pl3     1 C341        0.0000
      2 H1          1.9660   -0.8480   -0.0930 H         1 C341        0.0000
      3 C2          2.0930    1.1760   -0.3290 C.3       1 C341        0.0000
      4 N2          3.4230    1.0770   -0.5090 N.3       1 C341        0.0000
      5 H2          3.8000    0.2650   -0.0370 H         1 C341        0.0000
      6 N3          1.4530    2.3600   -0.3680 N.2       1 C341        0.0000
      7 C4          0.1250    2.3660   -0.1530 C.2       1 C341        0.0000
      8 N4         -0.4720    3.5910   -0.2160 N.pl3     1 C341        0.0000
      9 H41         0.1250    4.3590   -0.4400 H         1 C341        0.0000
     10 H42        -1.4530    3.7270   -0.0900 H         1 C341        0.0000
     11 C5         -0.6750    1.2250    0.1380 C.2       1 C341        0.0000
     12 H5         -1.7360    1.2880    0.3060 H         1 C341        0.0000
     13 C6          0.0250    0.0080    0.1940 C.2       1 C341        0.0000
     14 H6         -0.4880   -0.9260    0.4060 H         1 C341        0.0000
     15 C7          4.3290    2.2400   -0.3460 C.3       1 C341        0.0000
     16 H71         4.3430    2.6040    0.7060 H         1 C341        0.0000
     17 H72         4.0180    3.0860   -1.0000 H         1 C341        0.0000
     18 H73         5.3700    1.9770   -0.6350 H         1 C341        0.0000
@<TRIPOS>BOND
     1   17   15 1 
     2   18   15 1 
     3    4   15 1 
     4    4    3 1 
     5    4    5 1 
     6    9    8 1 
     7    6    3 1 
     8    6    7 2 
     9   15   16 1 
    10    3    1 1 
    11    8    7 1 
    12    8   10 1 
    13    7   11 1 
    14    2    1 1 
    15    1   13 1 
    16   11   13 2 
    17   11   12 1 
    18   13   14 1 
