@<TRIPOS>MOLECULE
C:\Users\Praveer\PycharmProjects\pdb_to_mol2_converter\data\pdb\c36.pdb
   35    36     0     0     0
SMALL
GASTEIGER

@<TRIPOS>ATOM
      1 CG1         1.4020    0.0560   -0.1590 C.ar      1 C361        0.0000
      2 O          -0.0040    0.0880   -0.1030 O.3       1 C361        0.0000
      3 CD1         2.1190    1.2570   -0.1330 C.ar      1 C361        0.0000
      4 HD1         1.5810    2.1910   -0.1000 H         1 C361        0.0000
      5 CD2         2.1010   -1.1610   -0.2170 C.ar      1 C361        0.0000
      6 HD2         1.5540   -2.0900   -0.2560 H         1 C361        0.0000
      7 CE1         3.5210    1.2450   -0.1170 C.ar      1 C361        0.0000
      8 HE1         4.0580    2.1830   -0.0780 H         1 C361        0.0000
      9 CE2         3.5010   -1.1770   -0.2000 C.ar      1 C361        0.0000
     10 HE2         4.0140   -2.1270   -0.2330 H         1 C361        0.0000
     11 CZ1         4.2340    0.0260   -0.1370 C.ar      1 C361        0.0000
     12 CG2        -0.7350   -0.8270    0.6760 C.ar      1 C361        0.0000
     13 CD3        -1.8800   -1.4270    0.1400 C.ar      1 C361        0.0000
     14 HD3        -2.2040   -1.1500   -0.8510 H         1 C361        0.0000
     15 CD4        -0.3180   -1.1750    1.9720 C.ar      1 C361        0.0000
     16 HD4         0.5530   -0.7000    2.3970 H         1 C361        0.0000
     17 CE3        -2.5750   -2.4020    0.8670 C.ar      1 C361        0.0000
     18 HE3        -3.4460   -2.8700    0.4280 H         1 C361        0.0000
     19 CE4        -1.0090   -2.1510    2.7000 C.ar      1 C361        0.0000
     20 HE4        -0.6620   -2.4130    3.6900 H         1 C361        0.0000
     21 CZ2        -2.1420   -2.7910    2.1540 C.ar      1 C361        0.0000
     22 C1          5.7310    0.0530   -0.0610 C.2       1 C361        0.0000
     23 O1          6.2970    1.1560   -0.0080 O.2       1 C361        0.0000
     24 C2          6.5660   -1.2380   -0.0070 C.3       1 C361        0.0000
     25 H2          7.6140   -0.8820    0.0930 H         1 C361        0.0000
     26 O2A         6.3160   -1.9980    1.1750 O.3       1 C361        0.0000
     27 H2A         6.1070   -2.8030    0.6900 H         1 C361        0.0000
     28 O2B         6.3420   -2.0490   -1.0510 O.3       1 C361        0.0000
     29 C3         -2.8710   -3.8850    2.8730 C.2       1 C361        0.0000
     30 O3         -3.8640   -4.3870    2.3250 O.2       1 C361        0.0000
     31 C4         -2.3950   -4.4200    4.2350 C.3       1 C361        0.0000
     32 H4         -3.1000   -5.2490    4.4630 H         1 C361        0.0000
     33 O4A        -1.1110   -5.0380    4.1560 O.3       1 C361        0.0000
     34 H4A        -0.7330   -4.4900    4.8530 H         1 C361        0.0000
     35 O4B        -2.3170   -3.4660    5.1740 O.3       1 C361        0.0000
@<TRIPOS>BOND
     1   28   24 1 
     2   14   13 1 
     3    6    5 1 
     4   10    9 1 
     5    5    9 ar
     6    5    1 ar
     7    9   11 ar
     8    1    3 ar
     9    1    2 1 
    10   11    7 ar
    11   11   22 1 
    12    3    7 ar
    13    3    4 1 
    14    7    8 1 
    15    2   12 1 
    16   22   23 2 
    17   22   24 1 
    18   24   25 1 
    19   24   26 1 
    20   13   12 ar
    21   13   17 ar
    22   18   17 1 
    23   12   15 ar
    24   27   26 1 
    25   17   21 ar
    26   15   16 1 
    27   15   19 ar
    28   21   19 ar
    29   21   29 1 
    30   30   29 2 
    31   19   20 1 
    32   29   31 1 
    33   33   31 1 
    34   33   34 1 
    35   31   32 1 
    36   31   35 1 
