@<TRIPOS>MOLECULE
C:\Users\Praveer\PycharmProjects\pdb_to_mol2_converter\data\pdb\c37.pdb
   31    32     0     0     0
SMALL
GASTEIGER

@<TRIPOS>ATOM
      1 CG1         1.4490   -0.0040   -0.0760 C.ar      1 C371        0.0000
      2 O           0.0410    0.0100   -0.0340 O.3       1 C371        0.0000
      3 CD1         2.1530    1.2010   -0.0300 C.ar      1 C371        0.0000
      4 HD1         1.6090    2.1290    0.0340 H         1 C371        0.0000
      5 CD2         2.1690   -1.2040   -0.1750 C.ar      1 C371        0.0000
      6 HD2         1.6400   -2.1410   -0.2240 H         1 C371        0.0000
      7 CE1         3.5520    1.2080   -0.0460 C.ar      1 C371        0.0000
      8 HE1         4.0590    2.1600    0.0170 H         1 C371        0.0000
      9 CE2         3.5680   -1.2020   -0.2080 C.ar      1 C371        0.0000
     10 HE2         4.0710   -2.1530   -0.2830 H         1 C371        0.0000
     11 CZ1         4.2950    0.0070   -0.1280 C.ar      1 C371        0.0000
     12 CG2        -0.6890   -0.9270    0.7220 C.ar      1 C371        0.0000
     13 CD3        -1.8210   -1.5320    0.1670 C.ar      1 C371        0.0000
     14 HD3        -2.1280   -1.2750   -0.8320 H         1 C371        0.0000
     15 CD4        -0.3120   -1.2650    2.0300 C.ar      1 C371        0.0000
     16 HD4         0.5510   -0.8030    2.4800 H         1 C371        0.0000
     17 CE3        -2.5450   -2.4830    0.8920 C.ar      1 C371        0.0000
     18 HE3        -3.4000   -2.9490    0.4210 H         1 C371        0.0000
     19 CE4        -1.0440   -2.2040    2.7640 C.ar      1 C371        0.0000
     20 HE4        -0.7170   -2.4300    3.7650 H         1 C371        0.0000
     21 CZ2        -2.1630   -2.8510    2.2020 C.ar      1 C371        0.0000
     22 C1          5.7960    0.1080   -0.1170 C.2       1 C371        0.0000
     23 O1          6.2550    1.2630   -0.1280 O.2       1 C371        0.0000
     24 C2          6.7560   -1.1580   -0.0830 C.2       1 C371        0.0000
     25 O2A         7.9570   -0.9740   -0.4400 O.co2     1 C371        0.0000
     26 O2B         6.2730   -2.2620    0.3020 O.co2     1 C371        0.0000
     27 C3         -2.9770   -3.9010    2.8940 C.2       1 C371        0.0000
     28 O3         -3.9920   -4.2730    2.2840 O.2       1 C371        0.0000
     29 C4         -2.6040   -4.5130    4.3140 C.2       1 C371        0.0000
     30 O4A        -3.5270   -5.0910    4.9440 O.co2     1 C371        0.0000
     31 O4B        -1.4060   -4.3860    4.7210 O.co2     1 C371        0.0000
@<TRIPOS>BOND
     1   14   13 1 
     2   25   24 ar
     3   10    9 1 
     4    6    5 1 
     5    9    5 ar
     6    9   11 ar
     7    5    1 ar
     8   11   22 1 
     9   11    7 ar
    10   23   22 2 
    11   22   24 1 
    12   24   26 ar
    13    1    2 1 
    14    1    3 ar
    15    7    3 ar
    16    7    8 1 
    17    2   12 1 
    18    3    4 1 
    19   13   12 ar
    20   13   17 ar
    21   18   17 1 
    22   12   15 ar
    23   17   21 ar
    24   15   16 1 
    25   15   19 ar
    26   21   19 ar
    27   21   27 1 
    28   28   27 2 
    29   19   20 1 
    30   27   29 1 
    31   29   31 ar
    32   29   30 ar
