@<TRIPOS>MOLECULE
C:\Users\Praveer\PycharmProjects\pdb_to_mol2_converter\data\pdb\c3c.pdb
   27    28     0     0     0
SMALL
GASTEIGER

@<TRIPOS>ATOM
      1 CG1         1.4880   -0.0760    0.0610 C.ar      1 C3C1        0.0000
      2 O           0.0830   -0.0930    0.1130 O.3       1 C3C1        0.0000
      3 CD1         2.1600    1.1180    0.3350 C.ar      1 C3C1        0.0000
      4 HD1         1.5920    1.9860    0.6280 H         1 C3C1        0.0000
      5 CD2         2.2200   -1.2040   -0.3470 C.ar      1 C3C1        0.0000
      6 HD2         1.7040   -2.1220   -0.5790 H         1 C3C1        0.0000
      7 CE1         3.5540    1.1900    0.2370 C.ar      1 C3C1        0.0000
      8 HE1         4.0630    2.1190    0.4580 H         1 C3C1        0.0000
      9 CE2         3.6160   -1.1360   -0.4500 C.ar      1 C3C1        0.0000
     10 HE2         4.1760   -2.0060   -0.7610 H         1 C3C1        0.0000
     11 CZ1         4.3090    0.0620   -0.1600 C.ar      1 C3C1        0.0000
     12 CG2        -0.6560   -1.0770    0.8060 C.ar      1 C3C1        0.0000
     13 CD3        -0.1000   -1.8650    1.8320 C.ar      1 C3C1        0.0000
     14 HD3         0.9410   -1.7610    2.0940 H         1 C3C1        0.0000
     15 CD4        -2.0180   -1.2110    0.5110 C.ar      1 C3C1        0.0000
     16 HD4        -2.4510   -0.5940   -0.2600 H         1 C3C1        0.0000
     17 CE3        -0.8930   -2.7850    2.5280 C.ar      1 C3C1        0.0000
     18 HE3        -0.4550   -3.3870    3.3130 H         1 C3C1        0.0000
     19 CE4        -2.8150   -2.1270    1.2070 C.ar      1 C3C1        0.0000
     20 HE4        -3.8660   -2.2170    0.9660 H         1 C3C1        0.0000
     21 CZ2        -2.2660   -2.9340    2.2290 C.ar      1 C3C1        0.0000
     22 C1          5.8440    0.1440   -0.2790 C.2       1 C3C1        0.0000
     23 O1A         6.4430   -0.9070   -0.6440 O.co2     1 C3C1        0.0000
     24 O1B         6.3780    1.2520   -0.0020 O.co2     1 C3C1        0.0000
     25 C2         -3.1410   -3.9430    2.9980 C.2       1 C3C1        0.0000
     26 O2A        -4.3570   -4.0070    2.6690 O.co2     1 C3C1        0.0000
     27 O2B        -2.5710   -4.6240    3.8960 O.co2     1 C3C1        0.0000
@<TRIPOS>BOND
     1   10    9 1 
     2   23   22 ar
     3    6    5 1 
     4    9    5 ar
     5    9   11 ar
     6    5    1 ar
     7   22   11 1 
     8   22   24 ar
     9   16   15 1 
    10   11    7 ar
    11    1    2 1 
    12    1    3 ar
    13    2   12 1 
    14    7    3 ar
    15    7    8 1 
    16    3    4 1 
    17   15   12 ar
    18   15   19 ar
    19   12   13 ar
    20   20   19 1 
    21   19   21 ar
    22   13   14 1 
    23   13   17 ar
    24   21   17 ar
    25   21   25 1 
    26   17   18 1 
    27   26   25 ar
    28   25   27 ar
