@<TRIPOS>MOLECULE
C:\Users\Praveer\PycharmProjects\pdb_to_mol2_converter\data\pdb\ca.pdb
   68    71     0     0     0
SMALL
GASTEIGER

@<TRIPOS>ATOM
      1 C3          2.1210    1.4120   -0.0220 C.3       1 CA1         0.0000
      2 O3          3.5070    1.2990   -0.2930 O.3       1 CA1         0.0000
      3 H3'         3.5510    0.9440   -1.1840 H         1 CA1         0.0000
      4 H3          1.9640    1.8820    0.9760 H         1 CA1         0.0000
      5 C4          1.4640    2.2850   -1.1060 C.3       1 CA1         0.0000
      6 H4A         1.9020    2.0200   -2.0920 H         1 CA1         0.0000
      7 H4B         1.7270    3.3470   -0.9160 H         1 CA1         0.0000
      8 C5         -0.0870    2.1620   -1.2170 C.3       1 CA1         0.0000
      9 H5         -0.4810    2.6560   -0.2950 H         1 CA1         0.0000
     10 C6         -0.5880    2.9950   -2.4260 C.3       1 CA1         0.0000
     11 H6A        -0.0160    3.9450   -2.4810 H         1 CA1         0.0000
     12 H6B        -1.6480    3.2740   -2.2430 H         1 CA1         0.0000
     13 C7         -0.5230    2.2610   -3.7850 C.3       1 CA1         0.0000
     14 O7          0.7740    2.4510   -4.3390 O.3       1 CA1         0.0000
     15 H7'         0.7860    1.9090   -5.1320 H         1 CA1         0.0000
     16 H7         -1.2250    2.7920   -4.4710 H         1 CA1         0.0000
     17 C8         -0.9550    0.7950   -3.6920 C.3       1 CA1         0.0000
     18 H8         -2.0550    0.7760   -3.5740 H         1 CA1         0.0000
     19 C14        -0.5590    0.0630   -5.0030 C.3       1 CA1         0.0000
     20 H14         0.5500   -0.0290   -5.0500 H         1 CA1         0.0000
     21 C15        -1.0560    0.7310   -6.2830 C.3       1 CA1         0.0000
     22 H15A       -0.3930    1.5400   -6.6190 H         1 CA1         0.0000
     23 H15B       -2.0520    1.1750   -6.1350 H         1 CA1         0.0000
     24 C16        -1.1190   -0.4230   -7.2950 C.3       1 CA1         0.0000
     25 H16A       -0.4730   -0.2350   -8.1660 H         1 CA1         0.0000
     26 H16B       -2.1380   -0.5250   -7.6970 H         1 CA1         0.0000
     27 C17        -0.6910   -1.7190   -6.5600 C.3       1 CA1         0.0000
     28 H17         0.4080   -1.7810   -6.5740 H         1 CA1         0.0000
     29 C13        -1.1490   -1.3690   -5.0920 C.3       1 CA1         0.0000
     30 C18        -2.6990   -1.4140   -4.9600 C.3       1 CA1         0.0000
     31 H18A       -3.1390   -0.4000   -4.9020 H         1 CA1         0.0000
     32 H18B       -3.0010   -1.9740   -4.0520 H         1 CA1         0.0000
     33 H18C       -3.1640   -1.9140   -5.8290 H         1 CA1         0.0000
     34 C12        -0.4710   -2.1980   -3.9610 C.3       1 CA1         0.0000
     35 H12        -1.0230   -3.1560   -3.8460 H         1 CA1         0.0000
     36 O12         0.8860   -2.5560   -4.2000 O.3       1 CA1         0.0000
     37 H12'        0.8870   -2.9610   -5.0730 H         1 CA1         0.0000
     38 C11        -0.5890   -1.4820   -2.5880 C.3       1 CA1         0.0000
     39 H11A        0.0860   -2.0020   -1.8740 H         1 CA1         0.0000
     40 H11B       -1.6240   -1.6450   -2.2260 H         1 CA1         0.0000
     41 C9         -0.2820    0.0420   -2.5520 C.3       1 CA1         0.0000
     42 H9          0.8170    0.1280   -2.7210 H         1 CA1         0.0000
     43 C10        -0.6150    0.7310   -1.2090 C.3       1 CA1         0.0000
     44 C19        -2.1400    0.7580   -0.9180 C.3       1 CA1         0.0000
     45 H19A       -2.7000    1.3400   -1.6740 H         1 CA1         0.0000
     46 H19B       -2.3260    1.2310    0.0690 H         1 CA1         0.0000
     47 H19C       -2.5540   -0.2690   -0.8820 H         1 CA1         0.0000
     48 C1          0.0160   -0.0110    0.0030 C.3       1 CA1         0.0000
     49 H1A        -0.3680   -1.0500    0.0590 H         1 CA1         0.0000
     50 H1B        -0.3180    0.5050    0.9320 H         1 CA1         0.0000
     51 C2          1.5480   -0.0130   -0.0080 C.3       1 CA1         0.0000
     52 H2A         1.9210   -0.5390    0.8990 H         1 CA1         0.0000
     53 H2B         1.9100   -0.5820   -0.8920 H         1 CA1         0.0000
     54 C20        -1.2490   -3.0030   -7.2530 C.3       1 CA1         0.0000
     55 H20        -2.3200   -2.8450   -7.5100 H         1 CA1         0.0000
     56 C21        -1.1360   -4.2550   -6.3620 C.3       1 CA1         0.0000
     57 H21A       -1.8070   -4.1770   -5.4850 H         1 CA1         0.0000
     58 H21B       -0.0910   -4.4110   -6.0270 H         1 CA1         0.0000
     59 H21C       -1.4500   -5.1580   -6.9270 H         1 CA1         0.0000
     60 C22        -0.4910   -3.2190   -8.5860 C.3       1 CA1         0.0000
     61 H22A        0.5570   -3.5280   -8.3780 H         1 CA1         0.0000
     62 H22B       -0.4440   -2.2590   -9.1470 H         1 CA1         0.0000
     63 C23        -1.1470   -4.2570   -9.5320 C.3       1 CA1         0.0000
     64 H23A       -2.1940   -3.9620   -9.7450 H         1 CA1         0.0000
     65 H23B       -1.1470   -5.2660   -9.0780 H         1 CA1         0.0000
     66 CD         -0.4330   -4.3800  -10.8790 C.2       1 CA1         0.0000
     67 OE1        -0.9690   -5.1850  -11.6830 O.co2     1 CA1         0.0000
     68 OE2         0.5960   -3.6800  -11.0490 O.co2     1 CA1         0.0000
@<TRIPOS>BOND
     1   67   66 ar
     2   68   66 ar
     3   66   63 1 
     4   64   63 1 
     5   63   65 1 
     6   63   60 1 
     7   62   60 1 
     8   60   61 1 
     9   60   54 1 
    10   25   24 1 
    11   26   24 1 
    12   55   54 1 
    13   24   27 1 
    14   24   21 1 
    15   54   27 1 
    16   54   56 1 
    17   59   56 1 
    18   22   21 1 
    19   28   27 1 
    20   27   29 1 
    21   56   58 1 
    22   56   57 1 
    23   21   23 1 
    24   21   19 1 
    25   33   30 1 
    26   15   14 1 
    27   29   19 1 
    28   29   30 1 
    29   29   34 1 
    30   37   36 1 
    31   20   19 1 
    32   19   17 1 
    33   30   31 1 
    34   30   32 1 
    35   16   13 1 
    36   14   13 1 
    37   36   34 1 
    38   34   35 1 
    39   34   38 1 
    40   13   17 1 
    41   13   10 1 
    42   17   18 1 
    43   17   41 1 
    44   42   41 1 
    45   38   41 1 
    46   38   40 1 
    47   38   39 1 
    48   41   43 1 
    49   11   10 1 
    50   10   12 1 
    51   10    8 1 
    52    6    5 1 
    53   45   44 1 
    54    8   43 1 
    55    8    5 1 
    56    8    9 1 
    57   43   44 1 
    58   43   48 1 
    59    3    2 1 
    60    5    7 1 
    61    5    1 1 
    62   44   47 1 
    63   44   46 1 
    64   53   51 1 
    65    2    1 1 
    66    1   51 1 
    67    1    4 1 
    68   51   48 1 
    69   51   52 1 
    70   48   49 1 
    71   48   50 1 
