@<TRIPOS>MOLECULE
C:\Users\Praveer\PycharmProjects\pdb_to_mol2_converter\data\pdb\cald.pdb
    7     6     0     0     0
SMALL
GASTEIGER

@<TRIPOS>ATOM
      1 O           0.0040    0.0120   -0.0000 O.2       1 CAL1        0.0000
      2 C           1.2170   -0.0070    0.0000 C.2       1 CAL1        0.0000
      3 CB          2.0980    1.2060   -0.0000 C.3       1 CAL1        0.0000
      4 HB1         1.8980    1.8170    0.9060 H         1 CAL1        0.0000
      5 HB2         1.8980    1.8170   -0.9060 H         1 CAL1        0.0000
      6 CL          3.8360    0.7840    0.0000 Cl        1 CAL1        0.0000
      7 HA          1.7300   -0.9920   -0.0000 H         1 CAL1        0.0000
@<TRIPOS>BOND
     1    5    3 1 
     2    1    2 2 
     3    2    3 1 
     4    2    7 1 
     5    3    6 1 
     6    3    4 1 
