@<TRIPOS>MOLECULE
C:\Users\Praveer\PycharmProjects\pdb_to_mol2_converter\data\pdb\cbu.pdb
   12    12     0     0     0
SMALL
GASTEIGER

@<TRIPOS>ATOM
      1 C1          0.1590    0.4330    0.0790 C.3       1 CBU1        0.0000
      2 H11        -0.4780   -0.0930    0.7960 H         1 CBU1        0.0000
      3 H12        -0.2930    0.4580   -0.9170 H         1 CBU1        0.0000
      4 C2          1.6320   -0.0240    0.0520 C.3       1 CBU1        0.0000
      5 H21         1.9070   -0.6600   -0.7950 H         1 CBU1        0.0000
      6 H22         1.9570   -0.4600    1.0020 H         1 CBU1        0.0000
      7 C3          2.0260    1.4610   -0.0870 C.3       1 CBU1        0.0000
      8 H31         2.1070    1.7800   -1.1310 H         1 CBU1        0.0000
      9 H32         2.9000    1.7670    0.4950 H         1 CBU1        0.0000
     10 C4          0.6620    1.8170    0.5400 C.3       1 CBU1        0.0000
     11 H41         0.7090    1.9080    1.6290 H         1 CBU1        0.0000
     12 H42         0.1510    2.6720    0.0880 H         1 CBU1        0.0000
@<TRIPOS>BOND
     1    8    7 1 
     2    3    1 1 
     3    5    4 1 
     4    7    4 1 
     5    7    9 1 
     6    7   10 1 
     7    4    1 1 
     8    4    6 1 
     9    1   10 1 
    10    1    2 1 
    11   12   10 1 
    12   10   11 1 
