@<TRIPOS>MOLECULE
C:\Users\Praveer\PycharmProjects\pdb_to_mol2_converter\data\pdb\cdca.pdb
   67    70     0     0     0
SMALL
GASTEIGER

@<TRIPOS>ATOM
      1 C3          2.1220    1.4160   -0.0160 C.3       1 CDC1        0.0000
      2 O3          3.5090    1.3080   -0.2860 O.3       1 CDC1        0.0000
      3 H3'         3.5580    1.0160   -1.1990 H         1 CDC1        0.0000
      4 H3          1.9630    1.8850    0.9830 H         1 CDC1        0.0000
      5 C4          1.4630    2.2910   -1.0980 C.3       1 CDC1        0.0000
      6 H4A         1.8960    2.0280   -2.0860 H         1 CDC1        0.0000
      7 H4B         1.7270    3.3530   -0.9060 H         1 CDC1        0.0000
      8 C5         -0.0870    2.1690   -1.2010 C.3       1 CDC1        0.0000
      9 H5         -0.4770    2.6490   -0.2700 H         1 CDC1        0.0000
     10 C6         -0.6010    3.0180   -2.3930 C.3       1 CDC1        0.0000
     11 H6A        -0.0420    3.9780   -2.4290 H         1 CDC1        0.0000
     12 H6B        -1.6650    3.2770   -2.2050 H         1 CDC1        0.0000
     13 C7         -0.5250    2.3100   -3.7650 C.3       1 CDC1        0.0000
     14 O7          0.7650    2.5380   -4.3220 O.3       1 CDC1        0.0000
     15 H7'         0.7560    2.0710   -5.1610 H         1 CDC1        0.0000
     16 H7         -1.2410    2.8370   -4.4410 H         1 CDC1        0.0000
     17 C8         -0.9280    0.8350   -3.7010 C.3       1 CDC1        0.0000
     18 H8         -2.0300    0.7900   -3.6060 H         1 CDC1        0.0000
     19 C14        -0.5070    0.1460   -5.0300 C.3       1 CDC1        0.0000
     20 H14         0.6070    0.1130   -5.0720 H         1 CDC1        0.0000
     21 C15        -1.0340    0.7730   -6.3200 C.3       1 CDC1        0.0000
     22 H15A       -0.4130    1.6130   -6.6580 H         1 CDC1        0.0000
     23 H15B       -2.0550    1.1610   -6.1830 H         1 CDC1        0.0000
     24 C16        -1.0210   -0.4000   -7.3230 C.3       1 CDC1        0.0000
     25 H16A       -0.4190   -0.1590   -8.2100 H         1 CDC1        0.0000
     26 H16B       -2.0340   -0.6040   -7.6980 H         1 CDC1        0.0000
     27 C17        -0.4410   -1.6310   -6.5750 C.3       1 CDC1        0.0000
     28 H17         0.6570   -1.5770   -6.5370 H         1 CDC1        0.0000
     29 C13        -0.9990   -1.3130   -5.1390 C.3       1 CDC1        0.0000
     30 C18        -2.5430   -1.4690   -5.0790 C.3       1 CDC1        0.0000
     31 H18A       -3.0490   -0.5080   -4.8760 H         1 CDC1        0.0000
     32 H18B       -2.8310   -2.1870   -4.2850 H         1 CDC1        0.0000
     33 H18C       -2.9490   -1.8590   -6.0320 H         1 CDC1        0.0000
     34 C12        -0.3550   -2.1040   -3.9930 C.3       1 CDC1        0.0000
     35 H12A        0.7470   -2.1270   -4.1430 H         1 CDC1        0.0000
     36 H12B       -0.7210   -3.1470   -3.9580 H         1 CDC1        0.0000
     37 C11        -0.6610   -1.4450   -2.6310 C.3       1 CDC1        0.0000
     38 H11A       -0.1060   -2.0140   -1.8550 H         1 CDC1        0.0000
     39 H11B       -1.7440   -1.5580   -2.4180 H         1 CDC1        0.0000
     40 C9         -0.2730    0.0580   -2.5540 C.3       1 CDC1        0.0000
     41 H9          0.8280    0.1140   -2.7090 H         1 CDC1        0.0000
     42 C10        -0.6120    0.7360   -1.2080 C.3       1 CDC1        0.0000
     43 C19        -2.1380    0.7530   -0.9240 C.3       1 CDC1        0.0000
     44 H19A       -2.7000    1.3160   -1.6920 H         1 CDC1        0.0000
     45 H19B       -2.3340    1.2380    0.0550 H         1 CDC1        0.0000
     46 H19C       -2.5400   -0.2780   -0.8750 H         1 CDC1        0.0000
     47 C1          0.0170   -0.0090    0.0030 C.3       1 CDC1        0.0000
     48 H1A        -0.3670   -1.0480    0.0560 H         1 CDC1        0.0000
     49 H1B        -0.3210    0.5040    0.9310 H         1 CDC1        0.0000
     50 C2          1.5500   -0.0090   -0.0020 C.3       1 CDC1        0.0000
     51 H2A         1.9180   -0.5320    0.9090 H         1 CDC1        0.0000
     52 H2B         1.9180   -0.5810   -0.8810 H         1 CDC1        0.0000
     53 C20        -0.8330   -2.9700   -7.2820 C.3       1 CDC1        0.0000
     54 H20        -1.9170   -2.9540   -7.5260 H         1 CDC1        0.0000
     55 C21        -0.5430   -4.2060   -6.4080 C.3       1 CDC1        0.0000
     56 H21A       -1.2650   -4.2680   -5.5710 H         1 CDC1        0.0000
     57 H21B        0.4930   -4.1670   -6.0130 H         1 CDC1        0.0000
     58 H21C       -0.6550   -5.1370   -7.0000 H         1 CDC1        0.0000
     59 C22        -0.0640   -3.0710   -8.6240 C.3       1 CDC1        0.0000
     60 H22A        1.0150   -3.2440   -8.4240 H         1 CDC1        0.0000
     61 H22B       -0.1430   -2.1090   -9.1760 H         1 CDC1        0.0000
     62 C23        -0.5900   -4.1730   -9.5810 C.3       1 CDC1        0.0000
     63 H23A       -1.6690   -4.0120   -9.7780 H         1 CDC1        0.0000
     64 H23B       -0.4560   -5.1800   -9.1410 H         1 CDC1        0.0000
     65 CD          0.1170   -4.1880  -10.9370 C.2       1 CDC1        0.0000
     66 OE1        -0.3240   -5.0430  -11.7470 O.co2     1 CDC1        0.0000
     67 OE2         1.0490   -3.3630  -11.1090 O.co2     1 CDC1        0.0000
@<TRIPOS>BOND
     1   66   65 ar
     2   67   65 ar
     3   65   62 1 
     4   63   62 1 
     5   62   64 1 
     6   62   59 1 
     7   61   59 1 
     8   59   60 1 
     9   59   53 1 
    10   25   24 1 
    11   26   24 1 
    12   54   53 1 
    13   24   27 1 
    14   24   21 1 
    15   53   27 1 
    16   53   55 1 
    17   58   55 1 
    18   22   21 1 
    19   27   28 1 
    20   27   29 1 
    21   55   57 1 
    22   55   56 1 
    23   21   23 1 
    24   21   19 1 
    25   33   30 1 
    26   15   14 1 
    27   29   30 1 
    28   29   19 1 
    29   29   34 1 
    30   30   31 1 
    31   30   32 1 
    32   20   19 1 
    33   19   17 1 
    34   16   13 1 
    35   14   13 1 
    36   35   34 1 
    37   34   36 1 
    38   34   37 1 
    39   13   17 1 
    40   13   10 1 
    41   17   18 1 
    42   17   40 1 
    43   41   40 1 
    44   37   40 1 
    45   37   39 1 
    46   37   38 1 
    47   40   42 1 
    48   11   10 1 
    49   10   12 1 
    50   10    8 1 
    51    6    5 1 
    52   44   43 1 
    53   42    8 1 
    54   42   43 1 
    55   42   47 1 
    56    8    5 1 
    57    8    9 1 
    58    3    2 1 
    59    5    7 1 
    60    5    1 1 
    61   43   46 1 
    62   43   45 1 
    63   52   50 1 
    64    2    1 1 
    65    1   50 1 
    66    1    4 1 
    67   50   47 1 
    68   50   51 1 
    69   47   48 1 
    70   47   49 1 
