@<TRIPOS>MOLECULE
C:\Users\Praveer\PycharmProjects\pdb_to_mol2_converter\data\pdb\cena.pdb
   26    27     0     0     0
SMALL
GASTEIGER

@<TRIPOS>ATOM
      1 N9          1.4020   -0.0150    0.0170 N.ar      1 CEN1        0.0000
      2 H9          1.9880   -0.8390    0.0190 H         1 CEN1        0.0000
      3 C8          1.8550    1.2850    0.0170 C.ar      1 CEN1        0.0000
      4 H8          2.8950    1.5890    0.0190 H         1 CEN1        0.0000
      5 C7          0.7580    2.0960    0.0150 C.ar      1 CEN1        0.0000
      6 C5         -0.3490    1.2930    0.0220 C.ar      1 CEN1        0.0000
      7 H5         -1.3690    1.6460    0.0270 H         1 CEN1        0.0000
      8 C4          0.0280   -0.0120    0.0190 C.ar      1 CEN1        0.0000
      9 H4         -0.5860   -0.9040    0.0210 H         1 CEN1        0.0000
     10 C10         0.7510    3.6120    0.0410 C.3       1 CEN1        0.0000
     11 H101        0.7920    3.9490    1.1020 H         1 CEN1        0.0000
     12 H102       -0.2150    3.9620   -0.3820 H         1 CEN1        0.0000
     13 N11         1.8900    4.1910   -0.7060 N.3       1 CEN1        0.0000
     14 H11         1.9640    3.7800   -1.6360 H         1 CEN1        0.0000
     15 C12         1.8210    5.6310   -0.7980 C.3       1 CEN1        0.0000
     16 H12         1.4960    6.0580    0.1670 H         1 CEN1        0.0000
     17 C13         3.0890    6.2620   -1.3230 C.3       1 CEN1        0.0000
     18 H131        3.6740    5.5390   -1.9190 H         1 CEN1        0.0000
     19 H132        3.7550    6.5810   -0.5090 H         1 CEN1        0.0000
     20 C14         2.6450    7.4290   -2.1980 C.3       1 CEN1        0.0000
     21 H141        3.3600    7.6230   -3.0140 H         1 CEN1        0.0000
     22 H142        2.5820    8.3590   -1.6100 H         1 CEN1        0.0000
     23 C15         1.2820    6.9830   -2.6780 C.2       1 CEN1        0.0000
     24 H15         0.7170    7.4850   -3.4520 H         1 CEN1        0.0000
     25 C16         0.8310    5.9430   -1.9040 C.2       1 CEN1        0.0000
     26 H16        -0.1890    5.5910   -1.8920 H         1 CEN1        0.0000
@<TRIPOS>BOND
     1   24   23 1 
     2   21   20 1 
     3   23   20 1 
     4   23   25 2 
     5   20   22 1 
     6   20   17 1 
     7   18   17 1 
     8   25   26 1 
     9   25   15 1 
    10   14   13 1 
    11   17   15 1 
    12   17   19 1 
    13   15   13 1 
    14   15   16 1 
    15   13   10 1 
    16   12   10 1 
    17    5    3 ar
    18    5    6 ar
    19    5   10 1 
    20    1    3 ar
    21    1    2 1 
    22    1    8 ar
    23    3    4 1 
    24    8    9 1 
    25    8    6 ar
    26    6    7 1 
    27   10   11 1 
