@<TRIPOS>MOLECULE
C:\Users\Praveer\PycharmProjects\pdb_to_mol2_converter\data\pdb\cer181.pdb
  109   108     0     0     0
SMALL
GASTEIGER

@<TRIPOS>ATOM
      1 O1         17.4490    6.3220    3.7560 O.3       1 CER1        0.0000
      2 HO1        17.0400    6.2280    4.6190 H         1 CER1        0.0000
      3 C1S        16.5840    7.1830    3.0190 C.3       1 CER1        0.0000
      4 H1S        16.6010    8.1510    3.5570 H         1 CER1        0.0000
      5 H1T        15.5510    6.7820    3.0680 H         1 CER1        0.0000
      6 NF         18.4450    6.9860    1.3030 N.am      1 CER1        0.0000
      7 HNF        18.9610    6.7020    2.1060 H         1 CER1        0.0000
      8 C2S        17.0390    7.3420    1.5260 C.3       1 CER1        0.0000
      9 H2S        16.4710    6.5600    0.9680 H         1 CER1        0.0000
     10 C3S        16.5720    8.7150    0.9920 C.3       1 CER1        0.0000
     11 H3S        16.9100    8.8810   -0.0490 H         1 CER1        0.0000
     12 O3         17.1080    9.7860    1.7650 O.3       1 CER1        0.0000
     13 HO3        17.9180    9.4450    2.1510 H         1 CER1        0.0000
     14 C4S        15.0760    8.7990    1.0480 C.2       1 CER1        0.0000
     15 H4S        14.6440    9.2310    1.9610 H         1 CER1        0.0000
     16 C5S        14.2750    8.4240    0.0310 C.2       1 CER1        0.0000
     17 H5S        14.7260    8.0380   -0.8990 H         1 CER1        0.0000
     18 C6S        12.7730    8.4660    0.0580 C.3       1 CER1        0.0000
     19 H6S        12.3910    9.0340   -0.8190 H         1 CER1        0.0000
     20 H6T        12.3910    8.9780    0.9700 H         1 CER1        0.0000
     21 C7S        12.1960    7.0390    0.0220 C.3       1 CER1        0.0000
     22 H7S        12.5570    6.4660    0.9070 H         1 CER1        0.0000
     23 H7T        12.5530    6.5090   -0.8920 H         1 CER1        0.0000
     24 C8S        10.6620    7.0230    0.0230 C.3       1 CER1        0.0000
     25 H8S        10.2930    7.5740   -0.8710 H         1 CER1        0.0000
     26 H8T        10.2920    7.5560    0.9270 H         1 CER1        0.0000
     27 C9S        10.0840    5.6000    0.0080 C.3       1 CER1        0.0000
     28 H9S        10.4480    5.0470    0.9030 H         1 CER1        0.0000
     29 H9T        10.4530    5.0640   -0.8950 H         1 CER1        0.0000
     30 C10S        8.5490    5.5960    0.0040 C.3       1 CER1        0.0000
     31 H10S        8.1870    6.1440   -0.8940 H         1 CER1        0.0000
     32 H10T        8.1830    6.1400    0.9030 H         1 CER1        0.0000
     33 C11S        7.9530    4.1820    0.0000 C.3       1 CER1        0.0000
     34 H11S        8.3120    3.6300    0.8980 H         1 CER1        0.0000
     35 H11T        8.3140    3.6350   -0.9000 H         1 CER1        0.0000
     36 C12S        6.4180    4.1950   -0.0000 C.3       1 CER1        0.0000
     37 H12S        6.0600    4.7460   -0.8990 H         1 CER1        0.0000
     38 H12T        6.0590    4.7450    0.8980 H         1 CER1        0.0000
     39 C13S        5.8120    2.7850   -0.0010 C.3       1 CER1        0.0000
     40 H13S        6.1700    2.2350    0.8980 H         1 CER1        0.0000
     41 H13T        6.1700    2.2360   -0.9000 H         1 CER1        0.0000
     42 C14S        4.2770    2.8020   -0.0010 C.3       1 CER1        0.0000
     43 H14S        3.9190    3.3530   -0.8990 H         1 CER1        0.0000
     44 H14T        3.9190    3.3530    0.8980 H         1 CER1        0.0000
     45 C15S        3.6690    1.3930   -0.0000 C.3       1 CER1        0.0000
     46 H15S        4.0270    0.8420    0.8980 H         1 CER1        0.0000
     47 H15T        4.0280    0.8420   -0.8990 H         1 CER1        0.0000
     48 C16S        2.1340    1.4080   -0.0010 C.3       1 CER1        0.0000
     49 H16S        1.7750    1.9590   -0.8990 H         1 CER1        0.0000
     50 H16T        1.7750    1.9580    0.8980 H         1 CER1        0.0000
     51 C17S        1.5260   -0.0010   -0.0010 C.3       1 CER1        0.0000
     52 H17S        1.8920   -0.5490    0.8970 H         1 CER1        0.0000
     53 H17T        1.8930   -0.5490   -0.8990 H         1 CER1        0.0000
     54 C18S       -0.0050   -0.0030   -0.0010 C.3       1 CER1        0.0000
     55 H18S       -0.3950    0.5180   -0.9030 H         1 CER1        0.0000
     56 H18T       -0.3950    0.5180    0.9000 H         1 CER1        0.0000
     57 H18U       -0.3950   -1.0440   -0.0020 H         1 CER1        0.0000
     58 C1F        18.9180    6.8380    0.0650 C.2       1 CER1        0.0000
     59 OF         18.1730    6.9320   -0.8980 O.2       1 CER1        0.0000
     60 C2F        20.3560    6.4450   -0.0650 C.3       1 CER1        0.0000
     61 H2F        20.4090    5.3340   -0.0590 H         1 CER1        0.0000
     62 H2G        20.9180    6.8290    0.8130 H         1 CER1        0.0000
     63 C3F        21.0040    6.9770   -1.3630 C.3       1 CER1        0.0000
     64 H3F        21.0100    8.0900   -1.3490 H         1 CER1        0.0000
     65 H3G        20.4050    6.6550   -2.2460 H         1 CER1        0.0000
     66 C4F        22.4360    6.4490   -1.5170 C.3       1 CER1        0.0000
     67 H4F        22.3980    5.3340   -1.4910 H         1 CER1        0.0000
     68 H4G        23.0470    6.7870   -0.6500 H         1 CER1        0.0000
     69 C5F        23.1350    6.8710   -2.8180 C.3       1 CER1        0.0000
     70 H5F        23.2510    7.9770   -2.8460 H         1 CER1        0.0000
     71 H5G        22.5090    6.5690   -3.6880 H         1 CER1        0.0000
     72 C6F        24.5100    6.2010   -2.9290 C.3       1 CER1        0.0000
     73 H6F        24.3700    5.0980   -2.8590 H         1 CER1        0.0000
     74 H6G        25.1350    6.5120   -2.0610 H         1 CER1        0.0000
     75 C7F        25.2810    6.5030   -4.2220 C.3       1 CER1        0.0000
     76 H7F        25.4840    7.5950   -4.2830 H         1 CER1        0.0000
     77 H7G        24.6590    6.2160   -5.0980 H         1 CER1        0.0000
     78 C8F        26.6050    5.7150   -4.2390 C.3       1 CER1        0.0000
     79 H8F        26.3510    4.6340   -4.1430 H         1 CER1        0.0000
     80 H8G        27.1700    5.9910   -3.3180 H         1 CER1        0.0000
     81 C9F        27.4740    5.9240   -5.4470 C.2       1 CER1        0.0000
     82 H9F        27.1000    6.6040   -6.2270 H         1 CER1        0.0000
     83 C10F       28.6680    5.3130   -5.5920 C.2       1 CER1        0.0000
     84 H10F       29.2640    5.4970   -6.4960 H         1 CER1        0.0000
     85 C11F       29.2240    4.3630   -4.5560 C.3       1 CER1        0.0000
     86 H11F       28.5050    3.5220   -4.4180 H         1 CER1        0.0000
     87 H11G       29.2670    4.8800   -3.5700 H         1 CER1        0.0000
     88 C12F       30.6190    3.7210   -4.7780 C.3       1 CER1        0.0000
     89 H12F       30.5150    2.6170   -4.6670 H         1 CER1        0.0000
     90 H12G       31.2990    4.0620   -3.9640 H         1 CER1        0.0000
     91 C13F       31.3050    4.0060   -6.1220 C.3       1 CER1        0.0000
     92 H13F       31.4790    5.1010   -6.2200 H         1 CER1        0.0000
     93 H13G       30.6390    3.6820   -6.9530 H         1 CER1        0.0000
     94 C14F       32.6500    3.2790   -6.2540 C.3       1 CER1        0.0000
     95 H14F       32.4820    2.1820   -6.1630 H         1 CER1        0.0000
     96 H14G       33.3180    3.5890   -5.4190 H         1 CER1        0.0000
     97 C15F       33.3450    3.5710   -7.5900 C.3       1 CER1        0.0000
     98 H15F       33.5320    4.6650   -7.6720 H         1 CER1        0.0000
     99 H15G       32.6660    3.2790   -8.4220 H         1 CER1        0.0000
    100 C16F       34.6730    2.8170   -7.7370 C.3       1 CER1        0.0000
    101 H16F       34.4820    1.7250   -7.6450 H         1 CER1        0.0000
    102 H16G       35.3550    3.1130   -6.9090 H         1 CER1        0.0000
    103 C17F       35.3650    3.0910   -9.0790 C.3       1 CER1        0.0000
    104 H17F       35.5590    4.1840   -9.1660 H         1 CER1        0.0000
    105 H17G       34.6720    2.8080   -9.9040 H         1 CER1        0.0000
    106 C18F       36.6830    2.3290   -9.2450 C.3       1 CER1        0.0000
    107 H18F       36.5070    1.2330   -9.1840 H         1 CER1        0.0000
    108 H18G       37.4000    2.6140   -8.4450 H         1 CER1        0.0000
    109 H18H       37.1450    2.5570  -10.2290 H         1 CER1        0.0000
@<TRIPOS>BOND
     1  109  106 1 
     2  105  103 1 
     3  106  107 1 
     4  106  103 1 
     5  106  108 1 
     6  104  103 1 
     7  103  100 1 
     8   99   97 1 
     9  100  101 1 
    10  100   97 1 
    11  100  102 1 
    12   98   97 1 
    13   97   94 1 
    14   93   91 1 
    15   84   83 1 
    16   94   95 1 
    17   94   91 1 
    18   94   96 1 
    19   82   81 1 
    20   92   91 1 
    21   91   88 1 
    22   83   81 2 
    23   83   85 1 
    24   81   78 1 
    25   77   75 1 
    26   88   89 1 
    27   88   85 1 
    28   88   90 1 
    29   85   86 1 
    30   85   87 1 
    31   76   75 1 
    32   78   75 1 
    33   78   79 1 
    34   78   80 1 
    35   75   72 1 
    36   71   69 1 
    37   72   73 1 
    38   72   69 1 
    39   72   74 1 
    40   70   69 1 
    41   69   66 1 
    42   65   63 1 
    43   66   67 1 
    44   66   63 1 
    45   66   68 1 
    46   63   64 1 
    47   63   60 1 
    48   55   54 1 
    49   41   39 1 
    50   35   33 1 
    51   17   16 1 
    52   43   42 1 
    53   49   48 1 
    54   53   51 1 
    55   47   45 1 
    56   37   36 1 
    57   59   58 2 
    58   29   27 1 
    59   31   30 1 
    60   23   21 1 
    61   25   24 1 
    62   19   18 1 
    63   60   61 1 
    64   60   58 1 
    65   60   62 1 
    66   11   10 1 
    67   57   54 1 
    68   42   39 1 
    69   42   45 1 
    70   42   44 1 
    71   51   48 1 
    72   51   54 1 
    73   51   52 1 
    74   48   45 1 
    75   48   50 1 
    76   39   36 1 
    77   39   40 1 
    78   54   56 1 
    79   45   46 1 
    80   36   33 1 
    81   36   38 1 
    82   33   30 1 
    83   33   34 1 
    84   30   27 1 
    85   30   32 1 
    86   27   24 1 
    87   27   28 1 
    88   21   24 1 
    89   21   18 1 
    90   21   22 1 
    91   24   26 1 
    92   16   18 1 
    93   16   14 2 
    94   18   20 1 
    95   58    6 am
    96    9    8 1 
    97   10   14 1 
    98   10    8 1 
    99   10   12 1 
   100   14   15 1 
   101    6    8 1 
   102    6    7 1 
   103    8    3 1 
   104   12   13 1 
   105    3    5 1 
   106    3    4 1 
   107    3    1 1 
   108    1    2 1 
