@<TRIPOS>MOLECULE
C:\Users\Praveer\PycharmProjects\pdb_to_mol2_converter\data\pdb\cer180.pdb
  111   110     0     0     0
SMALL
GASTEIGER

@<TRIPOS>ATOM
      1 O1         17.5540    6.3720    3.8280 O.3       1 CER1        0.0000
      2 HO1        17.1840    6.2940    4.7140 H         1 CER1        0.0000
      3 C1S        16.6400    7.1910    3.0920 C.3       1 CER1        0.0000
      4 H1S        16.6320    8.1690    3.6100 H         1 CER1        0.0000
      5 H1T        15.6220    6.7560    3.1550 H         1 CER1        0.0000
      6 NF         18.4530    6.9530    1.3180 N.am      1 CER1        0.0000
      7 HNF        19.0000    6.7050    2.1140 H         1 CER1        0.0000
      8 C2S        17.0600    7.3290    1.5860 C.3       1 CER1        0.0000
      9 H2S        16.4670    6.5420    1.0600 H         1 CER1        0.0000
     10 C3S        16.5840    8.6980    1.0390 C.3       1 CER1        0.0000
     11 H3S        16.9190    8.8510   -0.0060 H         1 CER1        0.0000
     12 O3         17.1100    9.7850    1.7950 O.3       1 CER1        0.0000
     13 HO3        17.8990    9.4490    2.2270 H         1 CER1        0.0000
     14 C4S        15.0860    8.7770    1.0970 C.2       1 CER1        0.0000
     15 H4S        14.6600    9.1990    2.0200 H         1 CER1        0.0000
     16 C5S        14.2820    8.4210    0.0830 C.2       1 CER1        0.0000
     17 H5S        14.7280    8.0440   -0.8540 H         1 CER1        0.0000
     18 C6S        12.7740    8.4680    0.1030 C.3       1 CER1        0.0000
     19 H6S        12.3980    9.0440   -0.7710 H         1 CER1        0.0000
     20 H6T        12.3870    8.9700    1.0180 H         1 CER1        0.0000
     21 C7S        12.1970    7.0420    0.0450 C.3       1 CER1        0.0000
     22 H7S        12.5460    6.4600    0.9280 H         1 CER1        0.0000
     23 H7T        12.5620    6.5210   -0.8700 H         1 CER1        0.0000
     24 C8S        10.6630    7.0260    0.0300 C.3       1 CER1        0.0000
     25 H8S        10.3000    7.5790   -0.8660 H         1 CER1        0.0000
     26 H8T        10.2830    7.5570    0.9320 H         1 CER1        0.0000
     27 C9S        10.0870    5.6040    0.0090 C.3       1 CER1        0.0000
     28 H9S        10.4500    5.0480    0.9020 H         1 CER1        0.0000
     29 H9T        10.4590    5.0700   -0.8940 H         1 CER1        0.0000
     30 C10S        8.5530    5.5990    0.0020 C.3       1 CER1        0.0000
     31 H10S        8.1930    6.1470   -0.8980 H         1 CER1        0.0000
     32 H10T        8.1850    6.1440    0.9000 H         1 CER1        0.0000
     33 C11S        7.9570    4.1850   -0.0020 C.3       1 CER1        0.0000
     34 H11S        8.3170    3.6340    0.8960 H         1 CER1        0.0000
     35 H11T        8.3180    3.6380   -0.9020 H         1 CER1        0.0000
     36 C12S        6.4230    4.1980   -0.0020 C.3       1 CER1        0.0000
     37 H12S        6.0640    4.7490   -0.9000 H         1 CER1        0.0000
     38 H12T        6.0640    4.7490    0.8970 H         1 CER1        0.0000
     39 C13S        5.8170    2.7890   -0.0010 C.3       1 CER1        0.0000
     40 H13S        6.1760    2.2390    0.8980 H         1 CER1        0.0000
     41 H13T        6.1760    2.2390   -0.9000 H         1 CER1        0.0000
     42 C14S        4.2820    2.8050   -0.0010 C.3       1 CER1        0.0000
     43 H14S        3.9240    3.3560   -0.8990 H         1 CER1        0.0000
     44 H14T        3.9250    3.3560    0.8980 H         1 CER1        0.0000
     45 C15S        3.6750    1.3960   -0.0000 C.3       1 CER1        0.0000
     46 H15S        4.0330    0.8460    0.8980 H         1 CER1        0.0000
     47 H15T        4.0330    0.8450   -0.8990 H         1 CER1        0.0000
     48 C16S        2.1390    1.4120   -0.0010 C.3       1 CER1        0.0000
     49 H16S        1.7810    1.9620   -0.8990 H         1 CER1        0.0000
     50 H16T        1.7810    1.9620    0.8980 H         1 CER1        0.0000
     51 C17S        1.5310    0.0030   -0.0010 C.3       1 CER1        0.0000
     52 H17S        1.8970   -0.5450    0.8970 H         1 CER1        0.0000
     53 H17T        1.8980   -0.5450   -0.8990 H         1 CER1        0.0000
     54 C18S       -0.0000    0.0000   -0.0010 C.3       1 CER1        0.0000
     55 H18S       -0.3900    0.5210   -0.9030 H         1 CER1        0.0000
     56 H18T       -0.3910    0.5210    0.9000 H         1 CER1        0.0000
     57 H18U       -0.3890   -1.0410   -0.0010 H         1 CER1        0.0000
     58 C1F        18.8620    6.7560    0.0640 C.2       1 CER1        0.0000
     59 OF         18.0370    6.7900   -0.8380 O.2       1 CER1        0.0000
     60 C2F        20.3190    6.4510   -0.1580 C.3       1 CER1        0.0000
     61 H2F        20.6980    5.9400    0.7550 H         1 CER1        0.0000
     62 H2G        20.8750    7.4050   -0.2860 H         1 CER1        0.0000
     63 C3F        20.5850    5.5350   -1.3810 C.3       1 CER1        0.0000
     64 H3F        19.9020    4.6560   -1.3520 H         1 CER1        0.0000
     65 H3G        21.6270    5.1480   -1.3010 H         1 CER1        0.0000
     66 C4F        20.4550    6.2410   -2.7410 C.3       1 CER1        0.0000
     67 H4F        21.1740    7.0890   -2.7810 H         1 CER1        0.0000
     68 H4G        19.4300    6.6640   -2.8500 H         1 CER1        0.0000
     69 C5F        20.7130    5.2960   -3.9220 C.3       1 CER1        0.0000
     70 H5F        19.9990    4.4430   -3.8660 H         1 CER1        0.0000
     71 H5G        21.7430    4.8840   -3.8450 H         1 CER1        0.0000
     72 C6F        20.5440    6.0030   -5.2730 C.3       1 CER1        0.0000
     73 H6F        21.2360    6.8750   -5.3130 H         1 CER1        0.0000
     74 H6G        19.5040    6.3940   -5.3490 H         1 CER1        0.0000
     75 C7F        20.8270    5.0820   -6.4680 C.3       1 CER1        0.0000
     76 H7F        20.1280    4.2170   -6.4380 H         1 CER1        0.0000
     77 H7G        21.8640    4.6860   -6.3800 H         1 CER1        0.0000
     78 C8F        20.6780    5.8140   -7.8080 C.3       1 CER1        0.0000
     79 H8F        21.3480    6.7040   -7.8060 H         1 CER1        0.0000
     80 H8G        19.6320    6.1800   -7.9080 H         1 CER1        0.0000
     81 C9F        21.0250    4.9360   -9.0170 C.3       1 CER1        0.0000
     82 H9F        20.3500    4.0510   -9.0360 H         1 CER1        0.0000
     83 H9G        22.0690    4.5640   -8.9060 H         1 CER1        0.0000
     84 C10F       20.9030    5.7000  -10.3430 C.3       1 CER1        0.0000
     85 H10F       21.5520    6.6030  -10.2990 H         1 CER1        0.0000
     86 H10G       19.8520    6.0450  -10.4680 H         1 CER1        0.0000
     87 C11F       21.3080    4.8550  -11.5590 C.3       1 CER1        0.0000
     88 H11F       20.6660    3.9480  -11.6040 H         1 CER1        0.0000
     89 H11G       22.3610    4.5180  -11.4290 H         1 CER1        0.0000
     90 C12F       21.1890    5.6250  -12.8830 C.3       1 CER1        0.0000
     91 H12F       21.8090    6.5480  -12.8210 H         1 CER1        0.0000
     92 H12G       20.1310    5.9380  -13.0290 H         1 CER1        0.0000
     93 C13F       21.6460    4.7990  -14.0950 C.3       1 CER1        0.0000
     94 H13F       21.0290    3.8750  -14.1600 H         1 CER1        0.0000
     95 H13G       22.7040    4.4890  -13.9400 H         1 CER1        0.0000
     96 C14F       21.5410    5.5690  -15.4200 C.3       1 CER1        0.0000
     97 H14F       22.1410    6.5040  -15.3440 H         1 CER1        0.0000
     98 H14G       20.4810    5.8610  -15.5900 H         1 CER1        0.0000
     99 C15F       22.0400    4.7550  -16.6250 C.3       1 CER1        0.0000
    100 H15F       21.4360    3.8240  -16.7110 H         1 CER1        0.0000
    101 H15G       23.0970    4.4570  -16.4460 H         1 CER1        0.0000
    102 C16F       21.9570    5.5340  -17.9470 C.3       1 CER1        0.0000
    103 H16F       22.5500    6.4710  -17.8530 H         1 CER1        0.0000
    104 H16G       20.8990    5.8210  -18.1360 H         1 CER1        0.0000
    105 C17F       22.4810    4.7330  -19.1480 C.3       1 CER1        0.0000
    106 H17F       21.8870    3.7950  -19.2410 H         1 CER1        0.0000
    107 H17G       23.5370    4.4400  -18.9500 H         1 CER1        0.0000
    108 C18F       22.4150    5.5040  -20.4690 C.3       1 CER1        0.0000
    109 H18F       23.0210    6.4330  -20.4090 H         1 CER1        0.0000
    110 H18G       21.3660    5.7860  -20.7040 H         1 CER1        0.0000
    111 H18H       22.8060    4.8840  -21.3040 H         1 CER1        0.0000
@<TRIPOS>BOND
     1  111  108 1 
     2  110  108 1 
     3  108  109 1 
     4  108  105 1 
     5  106  105 1 
     6  105  107 1 
     7  105  102 1 
     8  104  102 1 
     9  102  103 1 
    10  102   99 1 
    11  100   99 1 
    12   99  101 1 
    13   99   96 1 
    14   98   96 1 
    15   96   97 1 
    16   96   93 1 
    17   94   93 1 
    18   93   95 1 
    19   93   90 1 
    20   92   90 1 
    21   90   91 1 
    22   90   87 1 
    23   88   87 1 
    24   87   89 1 
    25   87   84 1 
    26   86   84 1 
    27   84   85 1 
    28   84   81 1 
    29   82   81 1 
    30   81   83 1 
    31   81   78 1 
    32   80   78 1 
    33   78   79 1 
    34   78   75 1 
    35   75   76 1 
    36   75   77 1 
    37   75   72 1 
    38   74   72 1 
    39   73   72 1 
    40   72   69 1 
    41   69   70 1 
    42   69   71 1 
    43   69   66 1 
    44   68   66 1 
    45   67   66 1 
    46   66   63 1 
    47   63   64 1 
    48   63   65 1 
    49   63   60 1 
    50   55   54 1 
    51   35   33 1 
    52   37   36 1 
    53   41   39 1 
    54   49   48 1 
    55   53   51 1 
    56   43   42 1 
    57   47   45 1 
    58   31   30 1 
    59   29   27 1 
    60   23   21 1 
    61   25   24 1 
    62   17   16 1 
    63   59   58 2 
    64   19   18 1 
    65   62   60 1 
    66   60   58 1 
    67   60   61 1 
    68   11   10 1 
    69   33   36 1 
    70   33   30 1 
    71   33   34 1 
    72   36   39 1 
    73   36   38 1 
    74   57   54 1 
    75   54   51 1 
    76   54   56 1 
    77   51   48 1 
    78   51   52 1 
    79   48   45 1 
    80   48   50 1 
    81   42   39 1 
    82   42   45 1 
    83   42   44 1 
    84   39   40 1 
    85   45   46 1 
    86   30   27 1 
    87   30   32 1 
    88   27   24 1 
    89   27   28 1 
    90   24   21 1 
    91   24   26 1 
    92   21   18 1 
    93   21   22 1 
    94   58    6 am
    95   16   18 1 
    96   16   14 2 
    97   18   20 1 
    98   10   14 1 
    99   10    8 1 
   100   10   12 1 
   101    9    8 1 
   102   14   15 1 
   103    6    8 1 
   104    6    7 1 
   105    8    3 1 
   106   12   13 1 
   107    3    5 1 
   108    3    4 1 
   109    3    1 1 
   110    1    2 1 
