@<TRIPOS>MOLECULE
C:\Users\Praveer\PycharmProjects\pdb_to_mol2_converter\data\pdb\cer160.pdb
  105   104     0     0     0
SMALL
GASTEIGER

@<TRIPOS>ATOM
      1 O1         17.5010    6.3590    3.7310 O.3       1 CER1        0.0000
      2 HO1        17.0910    6.2840    4.5970 H         1 CER1        0.0000
      3 C1S        16.6040    7.1490    2.9520 C.3       1 CER1        0.0000
      4 H1S        16.5340    8.1210    3.4760 H         1 CER1        0.0000
      5 H1T        15.6020    6.6740    2.9690 H         1 CER1        0.0000
      6 NF         18.5030    6.9820    1.2790 N.am      1 CER1        0.0000
      7 HNF        18.9810    6.6820    2.1010 H         1 CER1        0.0000
      8 C2S        17.0900    7.3260    1.4690 C.3       1 CER1        0.0000
      9 H2S        16.5390    6.5460    0.8900 H         1 CER1        0.0000
     10 C3S        16.6140    8.7030    0.9460 C.3       1 CER1        0.0000
     11 H3S        16.9440    8.8730   -0.0970 H         1 CER1        0.0000
     12 O3         17.1500    9.7740    1.7170 O.3       1 CER1        0.0000
     13 HO3        17.9610    9.4370    2.1060 H         1 CER1        0.0000
     14 C4S        15.1150    8.7800    1.0150 C.2       1 CER1        0.0000
     15 H4S        14.6980    9.1870    1.9480 H         1 CER1        0.0000
     16 C5S        14.2930    8.4280    0.0090 C.2       1 CER1        0.0000
     17 H5S        14.7230    8.0620   -0.9400 H         1 CER1        0.0000
     18 C6S        12.7880    8.4660    0.0650 C.3       1 CER1        0.0000
     19 H6S        12.3890    9.0410   -0.8000 H         1 CER1        0.0000
     20 H6T        12.4200    8.9700    0.9880 H         1 CER1        0.0000
     21 C7S        12.2060    7.0400    0.0240 C.3       1 CER1        0.0000
     22 H7S        12.5680    6.4640    0.9060 H         1 CER1        0.0000
     23 H7T        12.5580    6.5140   -0.8930 H         1 CER1        0.0000
     24 C8S        10.6710    7.0260    0.0280 C.3       1 CER1        0.0000
     25 H8S        10.3000    7.5800   -0.8640 H         1 CER1        0.0000
     26 H8T        10.3020    7.5570    0.9340 H         1 CER1        0.0000
     27 C9S        10.0900    5.6040    0.0100 C.3       1 CER1        0.0000
     28 H9S        10.4530    5.0490    0.9040 H         1 CER1        0.0000
     29 H9T        10.4590    5.0690   -0.8930 H         1 CER1        0.0000
     30 C10S        8.5550    5.6000    0.0050 C.3       1 CER1        0.0000
     31 H10S        8.1940    6.1490   -0.8930 H         1 CER1        0.0000
     32 H10T        8.1880    6.1450    0.9040 H         1 CER1        0.0000
     33 C11S        7.9570    4.1860    0.0000 C.3       1 CER1        0.0000
     34 H11S        8.3170    3.6340    0.8980 H         1 CER1        0.0000
     35 H11T        8.3180    3.6400   -0.9000 H         1 CER1        0.0000
     36 C12S        6.4220    4.1980   -0.0000 C.3       1 CER1        0.0000
     37 H12S        6.0630    4.7490   -0.8990 H         1 CER1        0.0000
     38 H12T        6.0630    4.7480    0.8980 H         1 CER1        0.0000
     39 C13S        5.8140    2.7880   -0.0010 C.3       1 CER1        0.0000
     40 H13S        6.1730    2.2380    0.8980 H         1 CER1        0.0000
     41 H13T        6.1730    2.2380   -0.9000 H         1 CER1        0.0000
     42 C14S        4.2780    2.8030   -0.0010 C.3       1 CER1        0.0000
     43 H14S        3.9200    3.3540   -0.8990 H         1 CER1        0.0000
     44 H14T        3.9200    3.3540    0.8980 H         1 CER1        0.0000
     45 C15S        3.6700    1.3930   -0.0010 C.3       1 CER1        0.0000
     46 H15S        4.0280    0.8430    0.8980 H         1 CER1        0.0000
     47 H15T        4.0280    0.8430   -0.8990 H         1 CER1        0.0000
     48 C16S        2.1340    1.4080   -0.0010 C.3       1 CER1        0.0000
     49 H16S        1.7750    1.9580   -0.8990 H         1 CER1        0.0000
     50 H16T        1.7750    1.9580    0.8980 H         1 CER1        0.0000
     51 C17S        1.5250   -0.0010   -0.0010 C.3       1 CER1        0.0000
     52 H17S        1.8910   -0.5490    0.8970 H         1 CER1        0.0000
     53 H17T        1.8920   -0.5490   -0.8990 H         1 CER1        0.0000
     54 C18S       -0.0060   -0.0030   -0.0010 C.3       1 CER1        0.0000
     55 H18S       -0.3960    0.5170   -0.9030 H         1 CER1        0.0000
     56 H18T       -0.3960    0.5170    0.9000 H         1 CER1        0.0000
     57 H18U       -0.3950   -1.0440   -0.0010 H         1 CER1        0.0000
     58 C1F        19.0230    6.8510    0.0560 C.2       1 CER1        0.0000
     59 OF         18.3200    6.9900   -0.9320 O.2       1 CER1        0.0000
     60 C2F        20.4560    6.4190   -0.0360 C.3       1 CER1        0.0000
     61 H2F        20.4770    5.3080    0.0000 H         1 CER1        0.0000
     62 H2G        21.0170    6.8150    0.8370 H         1 CER1        0.0000
     63 C3F        21.1340    6.8920   -1.3420 C.3       1 CER1        0.0000
     64 H3F        21.1690    8.0050   -1.3620 H         1 CER1        0.0000
     65 H3G        20.5320    6.5590   -2.2180 H         1 CER1        0.0000
     66 C4F        22.5570    6.3310   -1.4850 C.3       1 CER1        0.0000
     67 H4F        22.5030    5.2180   -1.4610 H         1 CER1        0.0000
     68 H4G        23.1720    6.6590   -0.6170 H         1 CER1        0.0000
     69 C5F        23.2550    6.7580   -2.7840 C.3       1 CER1        0.0000
     70 H5F        23.3600    7.8650   -2.8050 H         1 CER1        0.0000
     71 H5G        22.6230    6.4610   -3.6510 H         1 CER1        0.0000
     72 C6F        24.6390    6.1090   -2.9260 C.3       1 CER1        0.0000
     73 H6F        24.5210    5.0030   -2.8720 H         1 CER1        0.0000
     74 H6G        25.2760    6.4200   -2.0680 H         1 CER1        0.0000
     75 C7F        25.3540    6.4630   -4.2370 C.3       1 CER1        0.0000
     76 H7F        25.5070    7.5640   -4.2880 H         1 CER1        0.0000
     77 H7G        24.7090    6.1700   -5.0950 H         1 CER1        0.0000
     78 C8F        26.7100    5.7540   -4.3620 C.3       1 CER1        0.0000
     79 H8F        26.5500    4.6550   -4.2840 H         1 CER1        0.0000
     80 H8G        27.3600    6.0610   -3.5120 H         1 CER1        0.0000
     81 C9F        27.4320    6.0560   -5.6820 C.3       1 CER1        0.0000
     82 H9F        27.5930    7.1540   -5.7690 H         1 CER1        0.0000
     83 H9G        26.7840    5.7410   -6.5310 H         1 CER1        0.0000
     84 C10F       28.7850    5.3380   -5.7900 C.3       1 CER1        0.0000
     85 H10F       28.6240    4.2420   -5.6780 H         1 CER1        0.0000
     86 H10G       29.4400    5.6700   -4.9540 H         1 CER1        0.0000
     87 C11F       29.4970    5.6040   -7.1250 C.3       1 CER1        0.0000
     88 H11F       29.6500    6.7000   -7.2450 H         1 CER1        0.0000
     89 H11G       28.8420    5.2600   -7.9570 H         1 CER1        0.0000
     90 C12F       30.8540    4.8930   -7.2310 C.3       1 CER1        0.0000
     91 H12F       30.7050    3.8000   -7.0750 H         1 CER1        0.0000
     92 H12G       31.5240    5.2610   -6.4220 H         1 CER1        0.0000
     93 C13F       31.5330    5.1130   -8.5900 C.3       1 CER1        0.0000
     94 H13F       31.6860    6.2040   -8.7500 H         1 CER1        0.0000
     95 H13G       30.8590    4.7440   -9.3950 H         1 CER1        0.0000
     96 C14F       32.8860    4.3950   -8.7040 C.3       1 CER1        0.0000
     97 H14F       32.7370    3.3080   -8.5170 H         1 CER1        0.0000
     98 H14G       33.5720    4.7830   -7.9180 H         1 CER1        0.0000
     99 C15F       33.5440    4.5760  -10.0790 C.3       1 CER1        0.0000
    100 H15F       33.6860    5.6650  -10.2700 H         1 CER1        0.0000
    101 H15G       32.8520    4.1880  -10.8610 H         1 CER1        0.0000
    102 C16F       34.8940    3.8640  -10.2040 C.3       1 CER1        0.0000
    103 H16F       34.7740    2.7720  -10.0330 H         1 CER1        0.0000
    104 H16G       35.6120    4.2590   -9.4540 H         1 CER1        0.0000
    105 H16H       35.3240    4.0150  -11.2170 H         1 CER1        0.0000
@<TRIPOS>BOND
     1  105  102 1 
     2  101   99 1 
     3  100   99 1 
     4  102   99 1 
     5  102  103 1 
     6  102  104 1 
     7   99   96 1 
     8   95   93 1 
     9   94   93 1 
    10   96   93 1 
    11   96   97 1 
    12   96   98 1 
    13   93   90 1 
    14   89   87 1 
    15   88   87 1 
    16   90   87 1 
    17   90   91 1 
    18   90   92 1 
    19   87   84 1 
    20   83   81 1 
    21   84   81 1 
    22   84   85 1 
    23   84   86 1 
    24   82   81 1 
    25   81   78 1 
    26   77   75 1 
    27   78   79 1 
    28   78   75 1 
    29   78   80 1 
    30   76   75 1 
    31   75   72 1 
    32   71   69 1 
    33   72   73 1 
    34   72   69 1 
    35   72   74 1 
    36   70   69 1 
    37   69   66 1 
    38   65   63 1 
    39   66   67 1 
    40   66   63 1 
    41   66   68 1 
    42   64   63 1 
    43   63   60 1 
    44   17   16 1 
    45   59   58 2 
    46   55   54 1 
    47   35   33 1 
    48   41   39 1 
    49   53   51 1 
    50   37   36 1 
    51   43   42 1 
    52   47   45 1 
    53   49   48 1 
    54   29   27 1 
    55   23   21 1 
    56   31   30 1 
    57   25   24 1 
    58   19   18 1 
    59   11   10 1 
    60   60   61 1 
    61   60   58 1 
    62   60   62 1 
    63   51   54 1 
    64   51   48 1 
    65   51   52 1 
    66   54   57 1 
    67   54   56 1 
    68   48   45 1 
    69   48   50 1 
    70   45   42 1 
    71   45   46 1 
    72   42   39 1 
    73   42   44 1 
    74   39   36 1 
    75   39   40 1 
    76   36   33 1 
    77   36   38 1 
    78   33   30 1 
    79   33   34 1 
    80   30   27 1 
    81   30   32 1 
    82   16   18 1 
    83   16   14 2 
    84   27   24 1 
    85   27   28 1 
    86   21   24 1 
    87   21   18 1 
    88   21   22 1 
    89   24   26 1 
    90   58    6 am
    91   18   20 1 
    92    9    8 1 
    93   10   14 1 
    94   10    8 1 
    95   10   12 1 
    96   14   15 1 
    97    6    8 1 
    98    6    7 1 
    99    8    3 1 
   100   12   13 1 
   101    3    5 1 
   102    3    4 1 
   103    3    1 1 
   104    1    2 1 
