@<TRIPOS>MOLECULE
C:\Users\Praveer\PycharmProjects\pdb_to_mol2_converter\data\pdb\cer241.pdb
  127   126     0     0     0
SMALL
GASTEIGER

@<TRIPOS>ATOM
      1 O1         17.4570    6.3330    3.7400 O.3       1 CER1        0.0000
      2 HO1        17.0480    6.2650    4.6090 H         1 CER1        0.0000
      3 C1S        16.5890    7.1700    2.9800 C.3       1 CER1        0.0000
      4 H1S        16.5650    8.1390    3.5160 H         1 CER1        0.0000
      5 H1T        15.5710    6.7350    3.0040 H         1 CER1        0.0000
      6 NF         18.4730    6.9830    1.3000 N.am      1 CER1        0.0000
      7 HNF        18.9550    6.6770    2.1200 H         1 CER1        0.0000
      8 C2S        17.0660    7.3350    1.4920 C.3       1 CER1        0.0000
      9 H2S        16.5090    6.5550    0.9150 H         1 CER1        0.0000
     10 C3S        16.5910    8.7110    0.9670 C.3       1 CER1        0.0000
     11 H3S        16.9270    8.8820   -0.0740 H         1 CER1        0.0000
     12 O3         17.1240    9.7810    1.7410 O.3       1 CER1        0.0000
     13 HO3        17.9450    9.4520    2.1140 H         1 CER1        0.0000
     14 C4S        15.0930    8.7890    1.0280 C.2       1 CER1        0.0000
     15 H4S        14.6680    9.2050    1.9540 H         1 CER1        0.0000
     16 C5S        14.2800    8.4280    0.0190 C.2       1 CER1        0.0000
     17 H5S        14.7220    8.0540   -0.9210 H         1 CER1        0.0000
     18 C6S        12.7770    8.4650    0.0600 C.3       1 CER1        0.0000
     19 H6S        12.3850    9.0360   -0.8110 H         1 CER1        0.0000
     20 H6T        12.4000    8.9700    0.9790 H         1 CER1        0.0000
     21 C7S        12.1990    7.0380    0.0220 C.3       1 CER1        0.0000
     22 H7S        12.5600    6.4640    0.9060 H         1 CER1        0.0000
     23 H7T        12.5540    6.5090   -0.8930 H         1 CER1        0.0000
     24 C8S        10.6650    7.0250    0.0260 C.3       1 CER1        0.0000
     25 H8S        10.2940    7.5790   -0.8660 H         1 CER1        0.0000
     26 H8T        10.2980    7.5570    0.9320 H         1 CER1        0.0000
     27 C9S        10.0850    5.6030    0.0100 C.3       1 CER1        0.0000
     28 H9S        10.4490    5.0490    0.9030 H         1 CER1        0.0000
     29 H9T        10.4540    5.0680   -0.8940 H         1 CER1        0.0000
     30 C10S        8.5500    5.5980    0.0050 C.3       1 CER1        0.0000
     31 H10S        8.1880    6.1470   -0.8930 H         1 CER1        0.0000
     32 H10T        8.1830    6.1420    0.9040 H         1 CER1        0.0000
     33 C11S        7.9540    4.1840    0.0000 C.3       1 CER1        0.0000
     34 H11S        8.3130    3.6320    0.8980 H         1 CER1        0.0000
     35 H11T        8.3150    3.6370   -0.9000 H         1 CER1        0.0000
     36 C12S        6.4190    4.1960   -0.0000 C.3       1 CER1        0.0000
     37 H12S        6.0600    4.7460   -0.8990 H         1 CER1        0.0000
     38 H12T        6.0590    4.7460    0.8980 H         1 CER1        0.0000
     39 C13S        5.8130    2.7860   -0.0010 C.3       1 CER1        0.0000
     40 H13S        6.1710    2.2350    0.8980 H         1 CER1        0.0000
     41 H13T        6.1710    2.2360   -0.9000 H         1 CER1        0.0000
     42 C14S        4.2780    2.8030   -0.0010 C.3       1 CER1        0.0000
     43 H14S        3.9200    3.3540   -0.8990 H         1 CER1        0.0000
     44 H14T        3.9200    3.3540    0.8980 H         1 CER1        0.0000
     45 C15S        3.6710    1.3940   -0.0010 C.3       1 CER1        0.0000
     46 H15S        4.0290    0.8430    0.8980 H         1 CER1        0.0000
     47 H15T        4.0290    0.8430   -0.8990 H         1 CER1        0.0000
     48 C16S        2.1360    1.4100   -0.0010 C.3       1 CER1        0.0000
     49 H16S        1.7770    1.9600   -0.8990 H         1 CER1        0.0000
     50 H16T        1.7770    1.9600    0.8980 H         1 CER1        0.0000
     51 C17S        1.5280    0.0010   -0.0010 C.3       1 CER1        0.0000
     52 H17S        1.8950   -0.5470    0.8970 H         1 CER1        0.0000
     53 H17T        1.8950   -0.5470   -0.8990 H         1 CER1        0.0000
     54 C18S       -0.0030   -0.0010   -0.0010 C.3       1 CER1        0.0000
     55 H18S       -0.3920    0.5190   -0.9030 H         1 CER1        0.0000
     56 H18T       -0.3930    0.5190    0.9000 H         1 CER1        0.0000
     57 H18U       -0.3920   -1.0420   -0.0020 H         1 CER1        0.0000
     58 C1F        18.9920    6.8420    0.0800 C.2       1 CER1        0.0000
     59 OF         18.2830    6.9800   -0.9080 O.2       1 CER1        0.0000
     60 C2F        20.4170    6.4020   -0.0110 C.3       1 CER1        0.0000
     61 H2F        20.4320    5.2890    0.0100 H         1 CER1        0.0000
     62 H2G        20.9830    6.7870    0.8650 H         1 CER1        0.0000
     63 C3F        21.0970    6.8880   -1.3070 C.3       1 CER1        0.0000
     64 H3F        21.1250    8.0010   -1.3230 H         1 CER1        0.0000
     65 H3G        20.5060    6.5610   -2.1930 H         1 CER1        0.0000
     66 C4F        22.5220    6.3360   -1.4360 C.3       1 CER1        0.0000
     67 H4F        22.4760    5.2210   -1.4150 H         1 CER1        0.0000
     68 H4G        23.1290    6.6730   -0.5660 H         1 CER1        0.0000
     69 C5F        23.2100    6.7710   -2.7330 C.3       1 CER1        0.0000
     70 H5F        23.3120    7.8790   -2.7520 H         1 CER1        0.0000
     71 H5G        22.5740    6.4760   -3.5980 H         1 CER1        0.0000
     72 C6F        24.5910    6.1270   -2.8910 C.3       1 CER1        0.0000
     73 H6F        24.4770    5.0200   -2.8470 H         1 CER1        0.0000
     74 H6G        25.2400    6.4300   -2.0390 H         1 CER1        0.0000
     75 C7F        25.2750    6.5010   -4.2090 C.3       1 CER1        0.0000
     76 H7F        25.4210    7.6040   -4.2500 H         1 CER1        0.0000
     77 H7G        24.6150    6.2120   -5.0580 H         1 CER1        0.0000
     78 C8F        26.6290    5.8030   -4.3700 C.3       1 CER1        0.0000
     79 H8F        26.4810    4.7010   -4.3020 H         1 CER1        0.0000
     80 H8G        27.2990    6.1050   -3.5330 H         1 CER1        0.0000
     81 C9F        27.3080    6.1320   -5.7040 C.3       1 CER1        0.0000
     82 H9F        27.4580    7.2320   -5.7800 H         1 CER1        0.0000
     83 H9G        26.6420    5.8210   -6.5390 H         1 CER1        0.0000
     84 C10F       28.6590    5.4230   -5.8400 C.3       1 CER1        0.0000
     85 H10F       28.5040    4.3260   -5.7300 H         1 CER1        0.0000
     86 H10G       29.3250    5.7530   -5.0110 H         1 CER1        0.0000
     87 C11F       29.3560    5.6920   -7.1790 C.3       1 CER1        0.0000
     88 H11F       29.5020    6.7870   -7.3100 H         1 CER1        0.0000
     89 H11G       28.7110    5.3300   -8.0110 H         1 CER1        0.0000
     90 C12F       30.7140    4.9870   -7.2440 C.3       1 CER1        0.0000
     91 H12F       30.5630    3.8980   -7.0620 H         1 CER1        0.0000
     92 H12G       31.3580    5.3740   -6.4220 H         1 CER1        0.0000
     93 C13F       31.4500    5.1650   -8.5790 C.3       1 CER1        0.0000
     94 H13F       31.5870    6.2490   -8.7860 H         1 CER1        0.0000
     95 H13G       30.8320    4.7330   -9.3980 H         1 CER1        0.0000
     96 C14F       32.8170    4.4640   -8.5190 C.3       1 CER1        0.0000
     97 H14F       32.6340    3.4040   -8.2280 H         1 CER1        0.0000
     98 H14G       33.3970    4.9310   -7.6910 H         1 CER1        0.0000
     99 C15F       33.6170    4.5170   -9.7960 C.2       1 CER1        0.0000
    100 H15F       33.2060    5.1290  -10.6140 H         1 CER1        0.0000
    101 C16F       34.7700    3.8480   -9.9610 C.2       1 CER1        0.0000
    102 H16F       35.2990    3.9170  -10.9250 H         1 CER1        0.0000
    103 C17F       35.3810    2.9780   -8.8870 C.3       1 CER1        0.0000
    104 H17F       34.7100    2.1040   -8.7170 H         1 CER1        0.0000
    105 H17G       35.3990    3.5350   -7.9200 H         1 CER1        0.0000
    106 C18F       36.8080    2.4100   -9.0870 C.3       1 CER1        0.0000
    107 H18F       36.7850    1.3290   -8.8170 H         1 CER1        0.0000
    108 H18G       37.4930    2.9070   -8.3620 H         1 CER1        0.0000
    109 C19F       37.4200    2.5460  -10.4890 C.3       1 CER1        0.0000
    110 H19F       37.5440    3.6250  -10.7330 H         1 CER1        0.0000
    111 H19G       36.7380    2.0950  -11.2440 H         1 CER1        0.0000
    112 C20F       38.7890    1.8620  -10.5840 C.3       1 CER1        0.0000
    113 H20F       38.6700    0.7760  -10.3690 H         1 CER1        0.0000
    114 H20G       39.4650    2.2870   -9.8090 H         1 CER1        0.0000
    115 C21F       39.4370    2.0350  -11.9620 C.3       1 CER1        0.0000
    116 H21F       39.5640    3.1210  -12.1710 H         1 CER1        0.0000
    117 H21G       38.7590    1.6170  -12.7400 H         1 CER1        0.0000
    118 C22F       40.8000    1.3390  -12.0520 C.3       1 CER1        0.0000
    119 H22F       40.6680    0.2550  -11.8390 H         1 CER1        0.0000
    120 H22G       41.4740    1.7580  -11.2710 H         1 CER1        0.0000
    121 C23F       41.4590    1.5050  -13.4260 C.3       1 CER1        0.0000
    122 H23F       41.5830    2.5920  -13.6340 H         1 CER1        0.0000
    123 H23G       40.7760    1.0920  -14.2030 H         1 CER1        0.0000
    124 C24F       42.8190    0.8120  -13.5290 C.3       1 CER1        0.0000
    125 H24F       42.7140   -0.2790  -13.3460 H         1 CER1        0.0000
    126 H24G       43.5250    1.2260  -12.7770 H         1 CER1        0.0000
    127 H24H       43.2560    0.9590  -14.5400 H         1 CER1        0.0000
@<TRIPOS>BOND
     1  127  124 1 
     2  123  121 1 
     3  122  121 1 
     4  124  121 1 
     5  124  125 1 
     6  124  126 1 
     7  121  118 1 
     8  117  115 1 
     9  116  115 1 
    10  118  115 1 
    11  118  119 1 
    12  118  120 1 
    13  115  112 1 
    14  111  109 1 
    15  102  101 1 
    16  110  109 1 
    17  100   99 1 
    18  112  109 1 
    19  112  113 1 
    20  112  114 1 
    21  109  106 1 
    22  101   99 2 
    23  101  103 1 
    24   99   96 1 
    25   95   93 1 
    26  106  103 1 
    27  106  107 1 
    28  106  108 1 
    29  103  104 1 
    30  103  105 1 
    31   94   93 1 
    32   93   96 1 
    33   93   90 1 
    34   96   97 1 
    35   96   98 1 
    36   89   87 1 
    37   88   87 1 
    38   90   87 1 
    39   90   91 1 
    40   90   92 1 
    41   87   84 1 
    42   83   81 1 
    43   84   85 1 
    44   84   81 1 
    45   84   86 1 
    46   82   81 1 
    47   81   78 1 
    48   77   75 1 
    49   78   79 1 
    50   78   75 1 
    51   78   80 1 
    52   76   75 1 
    53   75   72 1 
    54   71   69 1 
    55   72   73 1 
    56   72   69 1 
    57   72   74 1 
    58   70   69 1 
    59   69   66 1 
    60   65   63 1 
    61   66   67 1 
    62   66   63 1 
    63   66   68 1 
    64   64   63 1 
    65   63   60 1 
    66   17   16 1 
    67   59   58 2 
    68   55   54 1 
    69   35   33 1 
    70   41   39 1 
    71   37   36 1 
    72   43   42 1 
    73   53   51 1 
    74   49   48 1 
    75   47   45 1 
    76   29   27 1 
    77   31   30 1 
    78   23   21 1 
    79   25   24 1 
    80   19   18 1 
    81   11   10 1 
    82   60   61 1 
    83   60   58 1 
    84   60   62 1 
    85   57   54 1 
    86   45   48 1 
    87   45   42 1 
    88   45   46 1 
    89   54   51 1 
    90   54   56 1 
    91   51   48 1 
    92   51   52 1 
    93   48   50 1 
    94   42   39 1 
    95   42   44 1 
    96   39   36 1 
    97   39   40 1 
    98   36   33 1 
    99   36   38 1 
   100   33   30 1 
   101   33   34 1 
   102   30   27 1 
   103   30   32 1 
   104   27   24 1 
   105   27   28 1 
   106   16   18 1 
   107   16   14 2 
   108   21   24 1 
   109   21   18 1 
   110   21   22 1 
   111   24   26 1 
   112   18   20 1 
   113   58    6 am
   114    9    8 1 
   115   10   14 1 
   116   10    8 1 
   117   10   12 1 
   118   14   15 1 
   119    6    8 1 
   120    6    7 1 
   121    8    3 1 
   122   12   13 1 
   123    3    5 1 
   124    3    4 1 
   125    3    1 1 
   126    1    2 1 
