@<TRIPOS>MOLECULE
C:\Users\Praveer\PycharmProjects\pdb_to_mol2_converter\data\pdb\cer2.pdb
  129   128     0     0     0
SMALL
GASTEIGER

@<TRIPOS>ATOM
      1 O1         17.4930    6.3260    3.7160 O.3       1 CER1        0.0000
      2 HO1        17.0750    6.2290    4.5770 H         1 CER1        0.0000
      3 C1S        16.6220    7.1670    2.9610 C.3       1 CER1        0.0000
      4 H1S        16.6150    8.1360    3.4950 H         1 CER1        0.0000
      5 H1T        15.5970    6.7460    2.9890 H         1 CER1        0.0000
      6 NF         18.5040    6.9890    1.2720 N.am      1 CER1        0.0000
      7 HNF        18.9820    6.6650    2.0860 H         1 CER1        0.0000
      8 C2S        17.0960    7.3390    1.4750 C.3       1 CER1        0.0000
      9 H2S        16.5450    6.5520    0.9070 H         1 CER1        0.0000
     10 C3S        16.6140    8.7130    0.9500 C.3       1 CER1        0.0000
     11 H3S        16.9430    8.8840   -0.0940 H         1 CER1        0.0000
     12 O3         17.1460    9.7840    1.7230 O.3       1 CER1        0.0000
     13 HO3        17.9570    9.4430    2.1110 H         1 CER1        0.0000
     14 C4S        15.1140    8.7810    1.0170 C.2       1 CER1        0.0000
     15 H4S        14.6910    9.1930    1.9450 H         1 CER1        0.0000
     16 C5S        14.3000    8.4200    0.0100 C.2       1 CER1        0.0000
     17 H5S        14.7350    8.0570   -0.9390 H         1 CER1        0.0000
     18 C6S        12.7940    8.4570    0.0600 C.3       1 CER1        0.0000
     19 H6S        12.3970    9.0310   -0.8070 H         1 CER1        0.0000
     20 H6T        12.4250    8.9620    0.9820 H         1 CER1        0.0000
     21 C7S        12.2140    7.0310    0.0230 C.3       1 CER1        0.0000
     22 H7S        12.5750    6.4580    0.9080 H         1 CER1        0.0000
     23 H7T        12.5690    6.5010   -0.8910 H         1 CER1        0.0000
     24 C8S        10.6790    7.0200    0.0250 C.3       1 CER1        0.0000
     25 H8S        10.3130    7.5740   -0.8680 H         1 CER1        0.0000
     26 H8T        10.3120    7.5550    0.9300 H         1 CER1        0.0000
     27 C9S        10.0920    5.6000    0.0090 C.3       1 CER1        0.0000
     28 H9S        10.4530    5.0450    0.9040 H         1 CER1        0.0000
     29 H9T        10.4590    5.0630   -0.8940 H         1 CER1        0.0000
     30 C10S        8.5560    5.5990    0.0050 C.3       1 CER1        0.0000
     31 H10S        8.1960    6.1490   -0.8940 H         1 CER1        0.0000
     32 H10T        8.1900    6.1440    0.9040 H         1 CER1        0.0000
     33 C11S        7.9550    4.1860    0.0000 C.3       1 CER1        0.0000
     34 H11S        8.3130    3.6340    0.8980 H         1 CER1        0.0000
     35 H11T        8.3150    3.6380   -0.9000 H         1 CER1        0.0000
     36 C12S        6.4190    4.1970   -0.0000 C.3       1 CER1        0.0000
     37 H12S        6.0600    4.7480   -0.8990 H         1 CER1        0.0000
     38 H12T        6.0590    4.7470    0.8980 H         1 CER1        0.0000
     39 C13S        5.8120    2.7870   -0.0010 C.3       1 CER1        0.0000
     40 H13S        6.1690    2.2360    0.8980 H         1 CER1        0.0000
     41 H13T        6.1690    2.2370   -0.8990 H         1 CER1        0.0000
     42 C14S        4.2760    2.8020   -0.0010 C.3       1 CER1        0.0000
     43 H14S        3.9170    3.3520   -0.8990 H         1 CER1        0.0000
     44 H14T        3.9170    3.3520    0.8980 H         1 CER1        0.0000
     45 C15S        3.6680    1.3920   -0.0000 C.3       1 CER1        0.0000
     46 H15S        4.0260    0.8420    0.8980 H         1 CER1        0.0000
     47 H15T        4.0260    0.8420   -0.8990 H         1 CER1        0.0000
     48 C16S        2.1330    1.4070   -0.0010 C.3       1 CER1        0.0000
     49 H16S        1.7740    1.9570   -0.8990 H         1 CER1        0.0000
     50 H16T        1.7730    1.9570    0.8980 H         1 CER1        0.0000
     51 C17S        1.5240   -0.0020   -0.0010 C.3       1 CER1        0.0000
     52 H17S        1.8910   -0.5500    0.8970 H         1 CER1        0.0000
     53 H17T        1.8910   -0.5500   -0.8990 H         1 CER1        0.0000
     54 C18S       -0.0070   -0.0040   -0.0010 C.3       1 CER1        0.0000
     55 H18S       -0.3960    0.5170   -0.9030 H         1 CER1        0.0000
     56 H18T       -0.3970    0.5170    0.9000 H         1 CER1        0.0000
     57 H18U       -0.3960   -1.0450   -0.0020 H         1 CER1        0.0000
     58 C1F        19.0200    6.8610    0.0500 C.2       1 CER1        0.0000
     59 OF         18.3150    7.0130   -0.9380 O.2       1 CER1        0.0000
     60 C2F        20.4470    6.4170   -0.0470 C.3       1 CER1        0.0000
     61 H2F        20.4600    5.3040   -0.0260 H         1 CER1        0.0000
     62 H2G        21.0160    6.8040    0.8270 H         1 CER1        0.0000
     63 C3F        21.1290    6.8990   -1.3460 C.3       1 CER1        0.0000
     64 H3F        21.1670    8.0100   -1.3580 H         1 CER1        0.0000
     65 H3G        20.5330    6.5770   -2.2300 H         1 CER1        0.0000
     66 C4F        22.5520    6.3390   -1.4880 C.3       1 CER1        0.0000
     67 H4F        22.4970    5.2270   -1.4660 H         1 CER1        0.0000
     68 H4G        23.1650    6.6620   -0.6180 H         1 CER1        0.0000
     69 C5F        23.2540    6.7650   -2.7850 C.3       1 CER1        0.0000
     70 H5F        23.3640    7.8730   -2.8040 H         1 CER1        0.0000
     71 H5G        22.6230    6.4690   -3.6530 H         1 CER1        0.0000
     72 C6F        24.6360    6.1090   -2.9240 C.3       1 CER1        0.0000
     73 H6F        24.5130    5.0030   -2.8740 H         1 CER1        0.0000
     74 H6G        25.2750    6.4160   -2.0660 H         1 CER1        0.0000
     75 C7F        25.3550    6.4600   -4.2340 C.3       1 CER1        0.0000
     76 H7F        25.5140    7.5600   -4.2860 H         1 CER1        0.0000
     77 H7G        24.7120    6.1700   -5.0940 H         1 CER1        0.0000
     78 C8F        26.7080    5.7450   -4.3570 C.3       1 CER1        0.0000
     79 H8F        26.5450    4.6470   -4.2820 H         1 CER1        0.0000
     80 H8G        27.3590    6.0480   -3.5060 H         1 CER1        0.0000
     81 C9F        27.4300    6.0500   -5.6760 C.3       1 CER1        0.0000
     82 H9F        27.5930    7.1480   -5.7600 H         1 CER1        0.0000
     83 H9G        26.7830    5.7360   -6.5260 H         1 CER1        0.0000
     84 C10F       28.7820    5.3320   -5.7840 C.3       1 CER1        0.0000
     85 H10F       28.6220    4.2350   -5.6760 H         1 CER1        0.0000
     86 H10G       29.4390    5.6610   -4.9480 H         1 CER1        0.0000
     87 C11F       29.4880    5.6050   -7.1180 C.3       1 CER1        0.0000
     88 H11F       29.6390    6.7010   -7.2360 H         1 CER1        0.0000
     89 H11G       28.8330    5.2610   -7.9500 H         1 CER1        0.0000
     90 C12F       30.8440    4.8960   -7.2240 C.3       1 CER1        0.0000
     91 H12F       30.6970    3.8030   -7.0720 H         1 CER1        0.0000
     92 H12G       31.5140    5.2630   -6.4140 H         1 CER1        0.0000
     93 C13F       31.5200    5.1240   -8.5820 C.3       1 CER1        0.0000
     94 H13F       31.6730    6.2150   -8.7380 H         1 CER1        0.0000
     95 H13G       30.8440    4.7580   -9.3880 H         1 CER1        0.0000
     96 C14F       32.8690    4.4030   -8.6950 C.3       1 CER1        0.0000
     97 H14F       32.7140    3.3140   -8.5170 H         1 CER1        0.0000
     98 H14G       33.5540    4.7810   -7.9040 H         1 CER1        0.0000
     99 C15F       33.5260    4.5950  -10.0670 C.3       1 CER1        0.0000
    100 H15F       33.6940    5.6810  -10.2450 H         1 CER1        0.0000
    101 H15G       32.8330    4.2260  -10.8570 H         1 CER1        0.0000
    102 C16F       34.8610    3.8500  -10.1850 C.3       1 CER1        0.0000
    103 H16F       34.6900    2.7660  -10.0010 H         1 CER1        0.0000
    104 H16G       35.5570    4.2210   -9.3990 H         1 CER1        0.0000
    105 C17F       35.5140    4.0280  -11.5600 C.3       1 CER1        0.0000
    106 H17F       35.6950    5.1120  -11.7410 H         1 CER1        0.0000
    107 H17G       34.8150    3.6660  -12.3470 H         1 CER1        0.0000
    108 C18F       36.8420    3.2690  -11.6800 C.3       1 CER1        0.0000
    109 H18F       36.6580    2.1840  -11.5120 H         1 CER1        0.0000
    110 H18G       37.5360    3.6220  -10.8850 H         1 CER1        0.0000
    111 C19F       37.5060    3.4620  -13.0480 C.3       1 CER1        0.0000
    112 H19F       37.6960    4.5460  -13.2110 H         1 CER1        0.0000
    113 H19G       36.8100    3.1160  -13.8450 H         1 CER1        0.0000
    114 C20F       38.8300    2.6970  -13.1710 C.3       1 CER1        0.0000
    115 H20F       38.6390    1.6100  -13.0210 H         1 CER1        0.0000
    116 H20G       39.5210    3.0330  -12.3660 H         1 CER1        0.0000
    117 C21F       39.5050    2.9060  -14.5320 C.3       1 CER1        0.0000
    118 H21F       39.6960    3.9920  -14.6800 H         1 CER1        0.0000
    119 H21G       38.8130    2.5710  -15.3370 H         1 CER1        0.0000
    120 C22F       40.8290    2.1410  -14.6560 C.3       1 CER1        0.0000
    121 H22F       40.6370    1.0540  -14.5100 H         1 CER1        0.0000
    122 H22G       41.5190    2.4740  -13.8480 H         1 CER1        0.0000
    123 C23F       41.5080    2.3530  -16.0140 C.3       1 CER1        0.0000
    124 H23F       41.6920    3.4430  -16.1560 H         1 CER1        0.0000
    125 H23G       40.8110    2.0250  -16.8180 H         1 CER1        0.0000
    126 C24F       42.8310    1.5960  -16.1530 C.3       1 CER1        0.0000
    127 H24F       42.6670    0.5030  -16.0370 H         1 CER1        0.0000
    128 H24G       43.5510    1.9260  -15.3730 H         1 CER1        0.0000
    129 H24H       43.2840    1.7810  -17.1510 H         1 CER1        0.0000
@<TRIPOS>BOND
     1  129  126 1 
     2  125  123 1 
     3  124  123 1 
     4  126  127 1 
     5  126  123 1 
     6  126  128 1 
     7  123  120 1 
     8  119  117 1 
     9  118  117 1 
    10  120  117 1 
    11  120  121 1 
    12  120  122 1 
    13  117  114 1 
    14  113  111 1 
    15  112  111 1 
    16  114  111 1 
    17  114  115 1 
    18  114  116 1 
    19  111  108 1 
    20  107  105 1 
    21  106  105 1 
    22  108  105 1 
    23  108  109 1 
    24  108  110 1 
    25  105  102 1 
    26  101   99 1 
    27  100   99 1 
    28  102   99 1 
    29  102  103 1 
    30  102  104 1 
    31   99   96 1 
    32   95   93 1 
    33   94   93 1 
    34   96   93 1 
    35   96   97 1 
    36   96   98 1 
    37   93   90 1 
    38   89   87 1 
    39   88   87 1 
    40   90   87 1 
    41   90   91 1 
    42   90   92 1 
    43   87   84 1 
    44   83   81 1 
    45   84   81 1 
    46   84   85 1 
    47   84   86 1 
    48   82   81 1 
    49   81   78 1 
    50   77   75 1 
    51   78   79 1 
    52   78   75 1 
    53   78   80 1 
    54   76   75 1 
    55   75   72 1 
    56   71   69 1 
    57   72   73 1 
    58   72   69 1 
    59   72   74 1 
    60   70   69 1 
    61   69   66 1 
    62   65   63 1 
    63   66   67 1 
    64   66   63 1 
    65   66   68 1 
    66   64   63 1 
    67   63   60 1 
    68   17   16 1 
    69   59   58 2 
    70   55   54 1 
    71   35   33 1 
    72   43   42 1 
    73   47   45 1 
    74   37   36 1 
    75   41   39 1 
    76   49   48 1 
    77   53   51 1 
    78   31   30 1 
    79   29   27 1 
    80   23   21 1 
    81   25   24 1 
    82   19   18 1 
    83   11   10 1 
    84   60   61 1 
    85   60   58 1 
    86   60   62 1 
    87   57   54 1 
    88   51   54 1 
    89   51   48 1 
    90   51   52 1 
    91   54   56 1 
    92   48   45 1 
    93   48   50 1 
    94   39   42 1 
    95   39   36 1 
    96   39   40 1 
    97   42   45 1 
    98   42   44 1 
    99   45   46 1 
   100   36   33 1 
   101   36   38 1 
   102   33   30 1 
   103   33   34 1 
   104   30   27 1 
   105   30   32 1 
   106   27   24 1 
   107   27   28 1 
   108   16   18 1 
   109   16   14 2 
   110   21   24 1 
   111   21   18 1 
   112   21   22 1 
   113   24   26 1 
   114   58    6 am
   115   18   20 1 
   116    9    8 1 
   117   10   14 1 
   118   10    8 1 
   119   10   12 1 
   120   14   15 1 
   121    6    8 1 
   122    6    7 1 
   123    8    3 1 
   124   12   13 1 
   125    3    5 1 
   126    3    4 1 
   127    3    1 1 
   128    1    2 1 
