@<TRIPOS>MOLECULE
C:\Users\Praveer\PycharmProjects\pdb_to_mol2_converter\data\pdb\cer200.pdb
  117   116     0     0     0
SMALL
GASTEIGER

@<TRIPOS>ATOM
      1 O1         17.4830    6.2770    3.6900 O.3       1 CER1        0.0000
      2 HO1        17.0540    6.1680    4.5450 H         1 CER1        0.0000
      3 C1S        16.6520    7.1840    2.9670 C.3       1 CER1        0.0000
      4 H1S        16.7180    8.1450    3.5190 H         1 CER1        0.0000
      5 H1T        15.6040    6.8240    3.0070 H         1 CER1        0.0000
      6 NF         18.5180    6.9970    1.2630 N.am      1 CER1        0.0000
      7 HNF        18.9920    6.6430    2.0690 H         1 CER1        0.0000
      8 C2S        17.1090    7.3460    1.4740 C.3       1 CER1        0.0000
      9 H2S        16.5520    6.5600    0.9060 H         1 CER1        0.0000
     10 C3S        16.6120    8.7160    0.9530 C.3       1 CER1        0.0000
     11 H3S        16.9410    8.9010   -0.0880 H         1 CER1        0.0000
     12 O3         17.1320    9.7900    1.7310 O.3       1 CER1        0.0000
     13 HO3        17.9580    9.4690    2.0990 H         1 CER1        0.0000
     14 C4S        15.1130    8.7760    1.0200 C.2       1 CER1        0.0000
     15 H4S        14.6850    9.1970    1.9410 H         1 CER1        0.0000
     16 C5S        14.2990    8.4080    0.0120 C.2       1 CER1        0.0000
     17 H5S        14.7410    8.0410   -0.9310 H         1 CER1        0.0000
     18 C6S        12.7960    8.4440    0.0560 C.3       1 CER1        0.0000
     19 H6S        12.4020    9.0150   -0.8140 H         1 CER1        0.0000
     20 H6T        12.4180    8.9500    0.9740 H         1 CER1        0.0000
     21 C7S        12.2140    7.0190    0.0210 C.3       1 CER1        0.0000
     22 H7S        12.5710    6.4480    0.9090 H         1 CER1        0.0000
     23 H7T        12.5690    6.4840   -0.8900 H         1 CER1        0.0000
     24 C8S        10.6790    7.0170    0.0230 C.3       1 CER1        0.0000
     25 H8S        10.3150    7.5750   -0.8700 H         1 CER1        0.0000
     26 H8T        10.3180    7.5550    0.9280 H         1 CER1        0.0000
     27 C9S        10.0870    5.6000    0.0090 C.3       1 CER1        0.0000
     28 H9S        10.4500    5.0460    0.9030 H         1 CER1        0.0000
     29 H9T        10.4530    5.0630   -0.8940 H         1 CER1        0.0000
     30 C10S        8.5510    5.5990    0.0050 C.3       1 CER1        0.0000
     31 H10S        8.1900    6.1480   -0.8940 H         1 CER1        0.0000
     32 H10T        8.1850    6.1440    0.9040 H         1 CER1        0.0000
     33 C11S        7.9510    4.1850    0.0000 C.3       1 CER1        0.0000
     34 H11S        8.3100    3.6330    0.8980 H         1 CER1        0.0000
     35 H11T        8.3110    3.6380   -0.8990 H         1 CER1        0.0000
     36 C12S        6.4150    4.1950   -0.0000 C.3       1 CER1        0.0000
     37 H12S        6.0550    4.7440   -0.8990 H         1 CER1        0.0000
     38 H12T        6.0540    4.7430    0.8990 H         1 CER1        0.0000
     39 C13S        5.8100    2.7840   -0.0010 C.3       1 CER1        0.0000
     40 H13S        6.1670    2.2330    0.8980 H         1 CER1        0.0000
     41 H13T        6.1670    2.2330   -0.9000 H         1 CER1        0.0000
     42 C14S        4.2750    2.8020   -0.0010 C.3       1 CER1        0.0000
     43 H14S        3.9160    3.3520   -0.8990 H         1 CER1        0.0000
     44 H14T        3.9160    3.3520    0.8980 H         1 CER1        0.0000
     45 C15S        3.6690    1.3920   -0.0000 C.3       1 CER1        0.0000
     46 H15S        4.0270    0.8420    0.8990 H         1 CER1        0.0000
     47 H15T        4.0270    0.8420   -0.8990 H         1 CER1        0.0000
     48 C16S        2.1350    1.4090   -0.0010 C.3       1 CER1        0.0000
     49 H16S        1.7760    1.9600   -0.8990 H         1 CER1        0.0000
     50 H16T        1.7760    1.9600    0.8980 H         1 CER1        0.0000
     51 C17S        1.5290    0.0000   -0.0010 C.3       1 CER1        0.0000
     52 H17S        1.8950   -0.5480    0.8970 H         1 CER1        0.0000
     53 H17T        1.8960   -0.5470   -0.8990 H         1 CER1        0.0000
     54 C18S       -0.0020   -0.0010   -0.0010 C.3       1 CER1        0.0000
     55 H18S       -0.3900    0.5200   -0.9030 H         1 CER1        0.0000
     56 H18T       -0.3910    0.5200    0.9000 H         1 CER1        0.0000
     57 H18U       -0.3920   -1.0420   -0.0020 H         1 CER1        0.0000
     58 C1F        19.0290    6.8770    0.0380 C.2       1 CER1        0.0000
     59 OF         18.3170    7.0440   -0.9450 O.2       1 CER1        0.0000
     60 C2F        20.4510    6.4190   -0.0710 C.3       1 CER1        0.0000
     61 H2F        20.4650    5.3080   -0.0470 H         1 CER1        0.0000
     62 H2G        21.0290    6.7820    0.8050 H         1 CER1        0.0000
     63 C3F        21.1320    6.9110   -1.3640 C.3       1 CER1        0.0000
     64 H3F        21.1650    8.0240   -1.3660 H         1 CER1        0.0000
     65 H3G        20.5360    6.5880   -2.2490 H         1 CER1        0.0000
     66 C4F        22.5540    6.3460   -1.4860 C.3       1 CER1        0.0000
     67 H4F        22.4950    5.2320   -1.4610 H         1 CER1        0.0000
     68 H4G        23.1540    6.6790   -0.6080 H         1 CER1        0.0000
     69 C5F        23.2610    6.7650   -2.7790 C.3       1 CER1        0.0000
     70 H5F        23.3700    7.8720   -2.8050 H         1 CER1        0.0000
     71 H5G        22.6280    6.4720   -3.6460 H         1 CER1        0.0000
     72 C6F        24.6380    6.1030   -2.9200 C.3       1 CER1        0.0000
     73 H6F        24.5040    4.9990   -2.8710 H         1 CER1        0.0000
     74 H6G        25.2780    6.4020   -2.0600 H         1 CER1        0.0000
     75 C7F        25.3570    6.4530   -4.2290 C.3       1 CER1        0.0000
     76 H7F        25.5180    7.5540   -4.2800 H         1 CER1        0.0000
     77 H7G        24.7110    6.1620   -5.0880 H         1 CER1        0.0000
     78 C8F        26.7080    5.7360   -4.3530 C.3       1 CER1        0.0000
     79 H8F        26.5450    4.6370   -4.2830 H         1 CER1        0.0000
     80 H8G        27.3610    6.0350   -3.5020 H         1 CER1        0.0000
     81 C9F        27.4280    6.0460   -5.6710 C.3       1 CER1        0.0000
     82 H9F        27.5890    7.1440   -5.7530 H         1 CER1        0.0000
     83 H9G        26.7810    5.7350   -6.5220 H         1 CER1        0.0000
     84 C10F       28.7790    5.3300   -5.7830 C.3       1 CER1        0.0000
     85 H10F       28.6220    4.2330   -5.6800 H         1 CER1        0.0000
     86 H10G       29.4380    5.6570   -4.9480 H         1 CER1        0.0000
     87 C11F       29.4820    5.6080   -7.1180 C.3       1 CER1        0.0000
     88 H11F       29.6300    6.7050   -7.2350 H         1 CER1        0.0000
     89 H11G       28.8270    5.2640   -7.9500 H         1 CER1        0.0000
     90 C12F       30.8380    4.9010   -7.2220 C.3       1 CER1        0.0000
     91 H12F       30.6890    3.8080   -7.0710 H         1 CER1        0.0000
     92 H12G       31.5060    5.2670   -6.4100 H         1 CER1        0.0000
     93 C13F       31.5160    5.1280   -8.5790 C.3       1 CER1        0.0000
     94 H13F       31.6660    6.2200   -8.7380 H         1 CER1        0.0000
     95 H13G       30.8430    4.7580   -9.3840 H         1 CER1        0.0000
     96 C14F       32.8670    4.4100   -8.6880 C.3       1 CER1        0.0000
     97 H14F       32.7150    3.3230   -8.5050 H         1 CER1        0.0000
     98 H14G       33.5520    4.7930   -7.8990 H         1 CER1        0.0000
     99 C15F       33.5240    4.5960  -10.0620 C.3       1 CER1        0.0000
    100 H15F       33.6910    5.6810  -10.2450 H         1 CER1        0.0000
    101 H15G       32.8290    4.2240  -10.8490 H         1 CER1        0.0000
    102 C16F       34.8600    3.8510  -10.1820 C.3       1 CER1        0.0000
    103 H16F       34.6870    2.7660  -10.0000 H         1 CER1        0.0000
    104 H16G       35.5550    4.2190   -9.3950 H         1 CER1        0.0000
    105 C17F       35.5150    4.0300  -11.5580 C.3       1 CER1        0.0000
    106 H17F       35.7060    5.1130  -11.7320 H         1 CER1        0.0000
    107 H17G       34.8100    3.6810  -12.3450 H         1 CER1        0.0000
    108 C18F       36.8350    3.2570  -11.6880 C.3       1 CER1        0.0000
    109 H18F       36.6380    2.1730  -11.5280 H         1 CER1        0.0000
    110 H18G       37.5350    3.5940  -10.8900 H         1 CER1        0.0000
    111 C19F       37.5040    3.4490  -13.0550 C.3       1 CER1        0.0000
    112 H19F       37.7060    4.5340  -13.2060 H         1 CER1        0.0000
    113 H19G       36.7930    3.1270  -13.8500 H         1 CER1        0.0000
    114 C20F       38.8120    2.6680  -13.2040 C.3       1 CER1        0.0000
    115 H20F       38.6290    1.5780  -13.0890 H         1 CER1        0.0000
    116 H20G       39.5450    2.9840  -12.4310 H         1 CER1        0.0000
    117 H20H       39.2600    2.8450  -14.2060 H         1 CER1        0.0000
@<TRIPOS>BOND
     1  117  114 1 
     2  113  111 1 
     3  112  111 1 
     4  114  115 1 
     5  114  111 1 
     6  114  116 1 
     7  111  108 1 
     8  107  105 1 
     9  106  105 1 
    10  108  105 1 
    11  108  109 1 
    12  108  110 1 
    13  105  102 1 
    14  101   99 1 
    15  100   99 1 
    16  102   99 1 
    17  102  103 1 
    18  102  104 1 
    19   99   96 1 
    20   95   93 1 
    21   94   93 1 
    22   96   93 1 
    23   96   97 1 
    24   96   98 1 
    25   93   90 1 
    26   89   87 1 
    27   88   87 1 
    28   90   87 1 
    29   90   91 1 
    30   90   92 1 
    31   87   84 1 
    32   83   81 1 
    33   84   85 1 
    34   84   81 1 
    35   84   86 1 
    36   82   81 1 
    37   81   78 1 
    38   77   75 1 
    39   78   79 1 
    40   78   75 1 
    41   78   80 1 
    42   76   75 1 
    43   75   72 1 
    44   71   69 1 
    45   72   73 1 
    46   72   69 1 
    47   72   74 1 
    48   70   69 1 
    49   69   66 1 
    50   65   63 1 
    51   66   67 1 
    52   66   63 1 
    53   66   68 1 
    54   64   63 1 
    55   63   60 1 
    56   59   58 2 
    57   17   16 1 
    58   55   54 1 
    59   41   39 1 
    60   53   51 1 
    61   49   48 1 
    62   47   45 1 
    63   43   42 1 
    64   35   33 1 
    65   37   36 1 
    66   29   27 1 
    67   31   30 1 
    68   23   21 1 
    69   25   24 1 
    70   19   18 1 
    71   11   10 1 
    72   60   61 1 
    73   60   58 1 
    74   60   62 1 
    75   57   54 1 
    76   42   39 1 
    77   42   45 1 
    78   42   44 1 
    79   54   51 1 
    80   54   56 1 
    81   51   48 1 
    82   51   52 1 
    83   48   45 1 
    84   48   50 1 
    85   39   36 1 
    86   39   40 1 
    87   45   46 1 
    88   33   36 1 
    89   33   30 1 
    90   33   34 1 
    91   36   38 1 
    92   30   27 1 
    93   30   32 1 
    94   27   24 1 
    95   27   28 1 
    96   16   18 1 
    97   16   14 2 
    98   21   24 1 
    99   21   18 1 
   100   21   22 1 
   101   24   26 1 
   102   58    6 am
   103   18   20 1 
   104    9    8 1 
   105   10   14 1 
   106   10    8 1 
   107   10   12 1 
   108   14   15 1 
   109    6    8 1 
   110    6    7 1 
   111    8    3 1 
   112   12   13 1 
   113    3    5 1 
   114    3    4 1 
   115    3    1 1 
   116    1    2 1 
