@<TRIPOS>MOLECULE
C:\Users\Praveer\PycharmProjects\pdb_to_mol2_converter\data\pdb\cer220.pdb
  123   122     0     0     0
SMALL
GASTEIGER

@<TRIPOS>ATOM
      1 O1         17.5160    6.3410    3.7050 O.3       1 CER1        0.0000
      2 HO1        17.1250    6.2410    4.5750 H         1 CER1        0.0000
      3 C1S        16.6100    7.1490    2.9480 C.3       1 CER1        0.0000
      4 H1S        16.5500    8.1190    3.4800 H         1 CER1        0.0000
      5 H1T        15.6030    6.6810    2.9630 H         1 CER1        0.0000
      6 NF         18.5040    6.9950    1.2800 N.am      1 CER1        0.0000
      7 HNF        18.9790    6.6780    2.1000 H         1 CER1        0.0000
      8 C2S        17.0930    7.3400    1.4690 C.3       1 CER1        0.0000
      9 H2S        16.5460    6.5610    0.8860 H         1 CER1        0.0000
     10 C3S        16.6110    8.7160    0.9450 C.3       1 CER1        0.0000
     11 H3S        16.9280    8.8720   -0.1060 H         1 CER1        0.0000
     12 O3         17.1530    9.7930    1.7000 O.3       1 CER1        0.0000
     13 HO3        17.9490    9.4470    2.1170 H         1 CER1        0.0000
     14 C4S        15.1130    8.7920    1.0240 C.2       1 CER1        0.0000
     15 H4S        14.7020    9.2110    1.9550 H         1 CER1        0.0000
     16 C5S        14.2900    8.4280    0.0230 C.2       1 CER1        0.0000
     17 H5S        14.7230    8.0500   -0.9190 H         1 CER1        0.0000
     18 C6S        12.7860    8.4660    0.0640 C.3       1 CER1        0.0000
     19 H6S        12.3930    9.0320   -0.8100 H         1 CER1        0.0000
     20 H6T        12.4030    8.9760    0.9790 H         1 CER1        0.0000
     21 C7S        12.2140    7.0370    0.0220 C.3       1 CER1        0.0000
     22 H7S        12.5780    6.4600    0.9030 H         1 CER1        0.0000
     23 H7T        12.5700    6.5160   -0.8960 H         1 CER1        0.0000
     24 C8S        10.6800    7.0210    0.0250 C.3       1 CER1        0.0000
     25 H8S        10.3110    7.5760   -0.8670 H         1 CER1        0.0000
     26 H8T        10.3130    7.5540    0.9310 H         1 CER1        0.0000
     27 C9S        10.0990    5.6010    0.0100 C.3       1 CER1        0.0000
     28 H9S        10.4610    5.0480    0.9050 H         1 CER1        0.0000
     29 H9T        10.4670    5.0630   -0.8930 H         1 CER1        0.0000
     30 C10S        8.5630    5.6020    0.0050 C.3       1 CER1        0.0000
     31 H10S        8.2060    6.1540   -0.8940 H         1 CER1        0.0000
     32 H10T        8.2000    6.1500    0.9030 H         1 CER1        0.0000
     33 C11S        7.9610    4.1900    0.0000 C.3       1 CER1        0.0000
     34 H11S        8.3210    3.6390    0.8980 H         1 CER1        0.0000
     35 H11T        8.3220    3.6440   -0.9000 H         1 CER1        0.0000
     36 C12S        6.4240    4.2010   -0.0000 C.3       1 CER1        0.0000
     37 H12S        6.0660    4.7510   -0.8990 H         1 CER1        0.0000
     38 H12T        6.0650    4.7510    0.8980 H         1 CER1        0.0000
     39 C13S        5.8140    2.7900   -0.0010 C.3       1 CER1        0.0000
     40 H13S        6.1730    2.2400    0.8980 H         1 CER1        0.0000
     41 H13T        6.1730    2.2400   -0.8990 H         1 CER1        0.0000
     42 C14S        4.2770    2.8020   -0.0010 C.3       1 CER1        0.0000
     43 H14S        3.9180    3.3520   -0.8990 H         1 CER1        0.0000
     44 H14T        3.9180    3.3520    0.8980 H         1 CER1        0.0000
     45 C15S        3.6670    1.3920   -0.0000 C.3       1 CER1        0.0000
     46 H15S        4.0240    0.8410    0.8980 H         1 CER1        0.0000
     47 H15T        4.0250    0.8410   -0.8990 H         1 CER1        0.0000
     48 C16S        2.1310    1.4050   -0.0010 C.3       1 CER1        0.0000
     49 H16S        1.7710    1.9550   -0.8990 H         1 CER1        0.0000
     50 H16T        1.7710    1.9550    0.8980 H         1 CER1        0.0000
     51 C17S        1.5210   -0.0040   -0.0010 C.3       1 CER1        0.0000
     52 H17S        1.8870   -0.5520    0.8970 H         1 CER1        0.0000
     53 H17T        1.8870   -0.5520   -0.8990 H         1 CER1        0.0000
     54 C18S       -0.0110   -0.0060   -0.0010 C.3       1 CER1        0.0000
     55 H18S       -0.4000    0.5140   -0.9030 H         1 CER1        0.0000
     56 H18T       -0.4010    0.5140    0.9000 H         1 CER1        0.0000
     57 H18U       -0.4000   -1.0470   -0.0020 H         1 CER1        0.0000
     58 C1F        19.0140    6.8500    0.0560 C.2       1 CER1        0.0000
     59 OF         18.3000    6.9650   -0.9230 O.2       1 CER1        0.0000
     60 C2F        20.4490    6.4210   -0.0360 C.3       1 CER1        0.0000
     61 H2F        20.4750    5.3090   -0.0060 H         1 CER1        0.0000
     62 H2G        21.0120    6.8070    0.8400 H         1 CER1        0.0000
     63 C3F        21.1270    6.8990   -1.3380 C.3       1 CER1        0.0000
     64 H3F        21.1690    8.0100   -1.3560 H         1 CER1        0.0000
     65 H3G        20.5250    6.5720   -2.2170 H         1 CER1        0.0000
     66 C4F        22.5470    6.3320   -1.4800 C.3       1 CER1        0.0000
     67 H4F        22.4880    5.2200   -1.4590 H         1 CER1        0.0000
     68 H4G        23.1620    6.6550   -0.6100 H         1 CER1        0.0000
     69 C5F        23.2460    6.7600   -2.7780 C.3       1 CER1        0.0000
     70 H5F        23.3500    7.8670   -2.7940 H         1 CER1        0.0000
     71 H5G        22.6140    6.4650   -3.6450 H         1 CER1        0.0000
     72 C6F        24.6300    6.1100   -2.9210 C.3       1 CER1        0.0000
     73 H6F        24.5110    5.0040   -2.8690 H         1 CER1        0.0000
     74 H6G        25.2670    6.4200   -2.0620 H         1 CER1        0.0000
     75 C7F        25.3460    6.4660   -4.2320 C.3       1 CER1        0.0000
     76 H7F        25.4990    7.5670   -4.2800 H         1 CER1        0.0000
     77 H7G        24.6980    6.1750   -5.0890 H         1 CER1        0.0000
     78 C8F        26.7020    5.7540   -4.3600 C.3       1 CER1        0.0000
     79 H8F        26.5380    4.6560   -4.2820 H         1 CER1        0.0000
     80 H8G        27.3510    6.0590   -3.5090 H         1 CER1        0.0000
     81 C9F        27.4300    6.0530   -5.6780 C.3       1 CER1        0.0000
     82 H9F        27.5950    7.1510   -5.7660 H         1 CER1        0.0000
     83 H9G        26.7850    5.7380   -6.5290 H         1 CER1        0.0000
     84 C10F       28.7830    5.3330   -5.7840 C.3       1 CER1        0.0000
     85 H10F       28.6220    4.2370   -5.6740 H         1 CER1        0.0000
     86 H10G       29.4400    5.6630   -4.9480 H         1 CER1        0.0000
     87 C11F       29.4940    5.6010   -7.1180 C.3       1 CER1        0.0000
     88 H11F       29.6470    6.6970   -7.2380 H         1 CER1        0.0000
     89 H11G       28.8400    5.2580   -7.9510 H         1 CER1        0.0000
     90 C12F       30.8510    4.8920   -7.2270 C.3       1 CER1        0.0000
     91 H12F       30.7060    3.7990   -7.0770 H         1 CER1        0.0000
     92 H12G       31.5240    5.2590   -6.4200 H         1 CER1        0.0000
     93 C13F       31.5250    5.1220   -8.5860 C.3       1 CER1        0.0000
     94 H13F       31.6800    6.2130   -8.7410 H         1 CER1        0.0000
     95 H13G       30.8500    4.7580   -9.3930 H         1 CER1        0.0000
     96 C14F       32.8730    4.4000   -8.7020 C.3       1 CER1        0.0000
     97 H14F       32.7190    3.3110   -8.5270 H         1 CER1        0.0000
     98 H14G       33.5600    4.7760   -7.9100 H         1 CER1        0.0000
     99 C15F       33.5300    4.5960  -10.0730 C.3       1 CER1        0.0000
    100 H15F       33.7010    5.6820  -10.2480 H         1 CER1        0.0000
    101 H15G       32.8390    4.2290  -10.8650 H         1 CER1        0.0000
    102 C16F       34.8650    3.8500  -10.1880 C.3       1 CER1        0.0000
    103 H16F       34.6930    2.7650  -10.0040 H         1 CER1        0.0000
    104 H16G       35.5600    4.2210   -9.4020 H         1 CER1        0.0000
    105 C17F       35.5190    4.0280  -11.5630 C.3       1 CER1        0.0000
    106 H17F       35.6990    5.1110  -11.7440 H         1 CER1        0.0000
    107 H17G       34.8200    3.6640  -12.3500 H         1 CER1        0.0000
    108 C18F       36.8450    3.2680  -11.6800 C.3       1 CER1        0.0000
    109 H18F       36.6610    2.1840  -11.5100 H         1 CER1        0.0000
    110 H18G       37.5390    3.6220  -10.8850 H         1 CER1        0.0000
    111 C19F       37.5100    3.4590  -13.0490 C.3       1 CER1        0.0000
    112 H19F       37.6990    4.5440  -13.2120 H         1 CER1        0.0000
    113 H19G       36.8130    3.1130  -13.8440 H         1 CER1        0.0000
    114 C20F       38.8330    2.6940  -13.1700 C.3       1 CER1        0.0000
    115 H20F       38.6410    1.6080  -13.0190 H         1 CER1        0.0000
    116 H20G       39.5240    3.0300  -12.3640 H         1 CER1        0.0000
    117 C21F       39.5100    2.9010  -14.5300 C.3       1 CER1        0.0000
    118 H21F       39.6940    3.9900  -14.6750 H         1 CER1        0.0000
    119 H21G       38.8110    2.5710  -15.3320 H         1 CER1        0.0000
    120 C22F       40.8320    2.1430  -14.6680 C.3       1 CER1        0.0000
    121 H22F       40.6670    1.0500  -14.5520 H         1 CER1        0.0000
    122 H22G       41.5520    2.4730  -13.8880 H         1 CER1        0.0000
    123 H22H       41.2850    2.3260  -15.6660 H         1 CER1        0.0000
@<TRIPOS>BOND
     1  123  120 1 
     2  119  117 1 
     3  118  117 1 
     4  120  121 1 
     5  120  117 1 
     6  120  122 1 
     7  117  114 1 
     8  113  111 1 
     9  112  111 1 
    10  114  111 1 
    11  114  115 1 
    12  114  116 1 
    13  111  108 1 
    14  107  105 1 
    15  106  105 1 
    16  108  105 1 
    17  108  109 1 
    18  108  110 1 
    19  105  102 1 
    20  101   99 1 
    21  100   99 1 
    22  102   99 1 
    23  102  103 1 
    24  102  104 1 
    25   99   96 1 
    26   95   93 1 
    27   94   93 1 
    28   96   93 1 
    29   96   97 1 
    30   96   98 1 
    31   93   90 1 
    32   89   87 1 
    33   88   87 1 
    34   90   87 1 
    35   90   91 1 
    36   90   92 1 
    37   87   84 1 
    38   83   81 1 
    39   84   81 1 
    40   84   85 1 
    41   84   86 1 
    42   82   81 1 
    43   81   78 1 
    44   77   75 1 
    45   78   79 1 
    46   78   75 1 
    47   78   80 1 
    48   76   75 1 
    49   75   72 1 
    50   71   69 1 
    51   72   73 1 
    52   72   69 1 
    53   72   74 1 
    54   70   69 1 
    55   69   66 1 
    56   65   63 1 
    57   66   67 1 
    58   66   63 1 
    59   66   68 1 
    60   64   63 1 
    61   63   60 1 
    62   59   58 2 
    63   17   16 1 
    64   55   54 1 
    65   35   33 1 
    66   43   42 1 
    67   49   48 1 
    68   53   51 1 
    69   47   45 1 
    70   37   36 1 
    71   41   39 1 
    72   23   21 1 
    73   31   30 1 
    74   29   27 1 
    75   25   24 1 
    76   19   18 1 
    77   11   10 1 
    78   60   61 1 
    79   60   58 1 
    80   60   62 1 
    81   57   54 1 
    82   51   48 1 
    83   51   54 1 
    84   51   52 1 
    85   48   45 1 
    86   48   50 1 
    87   42   39 1 
    88   42   45 1 
    89   42   44 1 
    90   39   36 1 
    91   39   40 1 
    92   54   56 1 
    93   45   46 1 
    94   36   33 1 
    95   36   38 1 
    96   33   30 1 
    97   33   34 1 
    98   30   27 1 
    99   30   32 1 
   100   27   24 1 
   101   27   28 1 
   102   21   24 1 
   103   21   18 1 
   104   21   22 1 
   105   16   18 1 
   106   16   14 2 
   107   24   26 1 
   108   58    6 am
   109   18   20 1 
   110    9    8 1 
   111   10   14 1 
   112   10    8 1 
   113   10   12 1 
   114   14   15 1 
   115    6    8 1 
   116    6    7 1 
   117    8    3 1 
   118   12   13 1 
   119    3    5 1 
   120    3    4 1 
   121    3    1 1 
   122    1    2 1 
