@<TRIPOS>MOLECULE
C:\Users\Praveer\PycharmProjects\pdb_to_mol2_converter\data\pdb\chl1.pdb
   74    77     0     0     0
SMALL
GASTEIGER

@<TRIPOS>ATOM
      1 C3          2.0780    1.4340   -0.0050 C.3       1 CHL1        0.0000
      2 H3          1.7870    1.9200   -0.9660 H         1 CHL1        0.0000
      3 O3          3.4910    1.4120    0.0790 O.3       1 CHL1        0.0000
      4 H3'         3.6920    0.9550    0.8980 H         1 CHL1        0.0000
      5 C4          1.5110    2.2410    1.1750 C.3       1 CHL1        0.0000
      6 H4A         1.9150    3.2760    1.0970 H         1 CHL1        0.0000
      7 H4B         1.9080    1.8210    2.1230 H         1 CHL1        0.0000
      8 C5         -0.0060    2.2230    1.1990 C.2       1 CHL1        0.0000
      9 C6         -0.7190    3.3600    1.1820 C.2       1 CHL1        0.0000
     10 H6         -0.1970    4.3290    1.1810 H         1 CHL1        0.0000
     11 C7         -2.2190    3.4090    1.2450 C.3       1 CHL1        0.0000
     12 H7A        -2.6180    3.6930    0.2460 H         1 CHL1        0.0000
     13 H7B        -2.5540    4.1830    1.9680 H         1 CHL1        0.0000
     14 C8         -2.8490    2.0500    1.6550 C.3       1 CHL1        0.0000
     15 H8         -2.6920    1.9200    2.7480 H         1 CHL1        0.0000
     16 C14        -4.3400    2.0520    1.3500 C.3       1 CHL1        0.0000
     17 H14        -4.4220    2.1520    0.2360 H         1 CHL1        0.0000
     18 C15        -5.1850    3.2070    1.9140 C.3       1 CHL1        0.0000
     19 H15A       -5.0240    4.1510    1.3560 H         1 CHL1        0.0000
     20 H15B       -4.9280    3.3680    2.9830 H         1 CHL1        0.0000
     21 C16        -6.6250    2.6920    1.7860 C.3       1 CHL1        0.0000
     22 H16A       -7.1970    3.2630    1.0250 H         1 CHL1        0.0000
     23 H16B       -7.1330    2.7930    2.7680 H         1 CHL1        0.0000
     24 C17        -6.5370    1.1860    1.3670 C.3       1 CHL1        0.0000
     25 H17        -6.6070    1.1660    0.2530 H         1 CHL1        0.0000
     26 C13        -5.0860    0.7640    1.7020 C.3       1 CHL1        0.0000
     27 C18        -4.9960    0.4780    3.2250 C.3       1 CHL1        0.0000
     28 H18A       -5.4630    1.2880    3.8190 H         1 CHL1        0.0000
     29 H18B       -3.9450    0.3750    3.5550 H         1 CHL1        0.0000
     30 H18C       -5.5140   -0.4720    3.4680 H         1 CHL1        0.0000
     31 C12        -4.4530   -0.3610    0.8560 C.3       1 CHL1        0.0000
     32 H12A       -4.6270   -0.1410   -0.2200 H         1 CHL1        0.0000
     33 H12B       -4.9110   -1.3430    1.0810 H         1 CHL1        0.0000
     34 C11        -2.9340   -0.4630    1.1050 C.3       1 CHL1        0.0000
     35 H11A       -2.5140   -1.2280    0.4190 H         1 CHL1        0.0000
     36 H11B       -2.7960   -0.8310    2.1410 H         1 CHL1        0.0000
     37 C9         -2.1790    0.8880    0.9100 C.3       1 CHL1        0.0000
     38 H9         -2.3060    1.1360   -0.1740 H         1 CHL1        0.0000
     39 C10        -0.6460    0.8180    1.1580 C.3       1 CHL1        0.0000
     40 C19        -0.3840    0.1380    2.5290 C.3       1 CHL1        0.0000
     41 H19A       -0.9330    0.6590    3.3400 H         1 CHL1        0.0000
     42 H19B        0.6930    0.1340    2.7870 H         1 CHL1        0.0000
     43 H19C       -0.7060   -0.9220    2.5080 H         1 CHL1        0.0000
     44 C1          0.0110   -0.0140    0.0150 C.3       1 CHL1        0.0000
     45 H1A        -0.3330    0.3970   -0.9610 H         1 CHL1        0.0000
     46 H1B        -0.3390   -1.0650    0.0770 H         1 CHL1        0.0000
     47 C2          1.5490   -0.0040    0.0180 C.3       1 CHL1        0.0000
     48 H2A         1.9190   -0.5260    0.9270 H         1 CHL1        0.0000
     49 H2B         1.9320   -0.5530   -0.8710 H         1 CHL1        0.0000
     50 C20        -7.7230    0.3620    1.9020 C.3       1 CHL1        0.0000
     51 H20        -7.7070    0.3890    3.0160 H         1 CHL1        0.0000
     52 C21        -7.6130   -1.1110    1.4540 C.3       1 CHL1        0.0000
     53 H21A       -6.7510   -1.6060    1.9420 H         1 CHL1        0.0000
     54 H21B       -7.4980   -1.1760    0.3520 H         1 CHL1        0.0000
     55 H21C       -8.5120   -1.6870    1.7500 H         1 CHL1        0.0000
     56 C22        -9.0820    0.9670    1.4510 C.3       1 CHL1        0.0000
     57 H22A       -9.1450    0.9280    0.3420 H         1 CHL1        0.0000
     58 H22B       -9.1310    2.0360    1.7530 H         1 CHL1        0.0000
     59 C23       -10.3280    0.2860    2.0480 C.3       1 CHL1        0.0000
     60 H23A      -10.2220    0.2400    3.1550 H         1 CHL1        0.0000
     61 H23B      -10.4030   -0.7530    1.6650 H         1 CHL1        0.0000
     62 C24       -11.6220    1.0410    1.7000 C.3       1 CHL1        0.0000
     63 H24A      -11.7450    1.0730    0.5960 H         1 CHL1        0.0000
     64 H24B      -11.5220    2.0900    2.0580 H         1 CHL1        0.0000
     65 C25       -12.8980    0.4390    2.3270 C.3       1 CHL1        0.0000
     66 H25       -12.7300    0.3530    3.4270 H         1 CHL1        0.0000
     67 C26       -14.1000    1.3730    2.1060 C.3       1 CHL1        0.0000
     68 H26A      -14.3000    1.4920    1.0200 H         1 CHL1        0.0000
     69 H26B      -13.8990    2.3750    2.5400 H         1 CHL1        0.0000
     70 H26C      -15.0090    0.9550    2.5880 H         1 CHL1        0.0000
     71 C27       -13.2140   -0.9620    1.7770 C.3       1 CHL1        0.0000
     72 H27A      -12.3940   -1.6730    2.0060 H         1 CHL1        0.0000
     73 H27B      -13.3510   -0.9200    0.6760 H         1 CHL1        0.0000
     74 H27C      -14.1490   -1.3520    2.2330 H         1 CHL1        0.0000
@<TRIPOS>BOND
     1    2    1 1 
     2   45   44 1 
     3   49   47 1 
     4   32   31 1 
     5   38   37 1 
     6    1   47 1 
     7    1    3 1 
     8    1    5 1 
     9   44   47 1 
    10   44   46 1 
    11   44   39 1 
    12   47   48 1 
    13    3    4 1 
    14   17   16 1 
    15   12   11 1 
    16   25   24 1 
    17   57   56 1 
    18   54   52 1 
    19   35   34 1 
    20   63   62 1 
    21   73   71 1 
    22   31   33 1 
    23   31   34 1 
    24   31   26 1 
    25   37   34 1 
    26   37   39 1 
    27   37   14 1 
    28   68   67 1 
    29   22   21 1 
    30    6    5 1 
    31   34   36 1 
    32   39    8 1 
    33   39   40 1 
    34    5    8 1 
    35    5    7 1 
    36   10    9 1 
    37    9    8 2 
    38    9   11 1 
    39   11   14 1 
    40   11   13 1 
    41   16   14 1 
    42   16   26 1 
    43   16   18 1 
    44   19   18 1 
    45   24   26 1 
    46   24   21 1 
    47   24   50 1 
    48   56   58 1 
    49   56   50 1 
    50   56   59 1 
    51   52   55 1 
    52   52   50 1 
    53   52   53 1 
    54   14   15 1 
    55   61   59 1 
    56   62   59 1 
    57   62   64 1 
    58   62   65 1 
    59   26   27 1 
    60   71   72 1 
    61   71   74 1 
    62   71   65 1 
    63   21   18 1 
    64   21   23 1 
    65   50   51 1 
    66   18   20 1 
    67   59   60 1 
    68   67   65 1 
    69   67   69 1 
    70   67   70 1 
    71   65   66 1 
    72   43   40 1 
    73   40   42 1 
    74   40   41 1 
    75   27   30 1 
    76   27   29 1 
    77   27   28 1 
