@<TRIPOS>MOLECULE
C:\Users\Praveer\PycharmProjects\pdb_to_mol2_converter\data\pdb\chlb.pdb
   12    12     0     0     0
SMALL
GASTEIGER

@<TRIPOS>ATOM
      1 C1          1.3880   -0.0220   -0.0000 C.ar      1 CHL1        0.0000
      2 H1          1.9200   -0.9610   -0.0000 H         1 CHL1        0.0000
      3 C2          2.0900    1.1920   -0.0000 C.ar      1 CHL1        0.0000
      4 H2          3.1710    1.1910   -0.0000 H         1 CHL1        0.0000
      5 C3          1.3890    2.4060    0.0000 C.ar      1 CHL1        0.0000
      6 H3          1.9290    3.3410    0.0000 H         1 CHL1        0.0000
      7 C4         -0.0130    2.4060   -0.0000 C.ar      1 CHL1        0.0000
      8 H4         -0.5540    3.3410   -0.0000 H         1 CHL1        0.0000
      9 C5         -0.7130    1.1910   -0.0000 C.ar      1 CHL1        0.0000
     10 H5         -1.7920    1.1820   -0.0000 H         1 CHL1        0.0000
     11 C6         -0.0120   -0.0220   -0.0000 C.ar      1 CHL1        0.0000
     12 CL         -0.8820   -1.5280    0.0000 Cl        1 CHL1        0.0000
@<TRIPOS>BOND
     1    1    2 1 
     2    1    3 ar
     3    1   11 ar
     4    3    4 1 
     5    3    5 ar
     6    5    6 1 
     7    5    7 ar
     8    7    8 1 
     9    7    9 ar
    10    9   10 1 
    11    9   11 ar
    12   11   12 1 
