@<TRIPOS>MOLECULE
C:\Users\Praveer\PycharmProjects\pdb_to_mol2_converter\data\pdb\chm1.pdb
   30    31     0     0     0
SMALL
GASTEIGER

@<TRIPOS>ATOM
      1 C1          0.0360   -0.1980   -0.1640 C.3       1 CHM1        0.0000
      2 H1          0.1290   -0.4830   -1.2420 H         1 CHM1        0.0000
      3 O1         -0.5490   -1.2800    0.5420 O.3       1 CHM1        0.0000
      4 HO1        -0.5930   -0.9880    1.4600 H         1 CHM1        0.0000
      5 C2          1.4560    0.0870    0.4140 C.3       1 CHM1        0.0000
      6 H2          2.1280   -0.6930   -0.0180 H         1 CHM1        0.0000
      7 H2'         1.4450   -0.0890    1.5110 H         1 CHM1        0.0000
      8 C3          2.0370    1.4780    0.1870 C.2       1 CHM1        0.0000
      9 C15         0.9990    2.5910    0.3920 C.3       1 CHM1        0.0000
     10 C16        -0.2530    2.2990   -0.4600 C.3       1 CHM1        0.0000
     11 H16         0.0190    2.2510   -1.5350 H         1 CHM1        0.0000
     12 H16'       -0.9550    3.1500   -0.3210 H         1 CHM1        0.0000
     13 C17        -0.9360    0.9880   -0.0700 C.3       1 CHM1        0.0000
     14 H17        -1.3110    1.0960    0.9680 H         1 CHM1        0.0000
     15 H17'       -1.8240    0.7910   -0.7130 H         1 CHM1        0.0000
     16 CC15        0.5850    2.7040    1.8710 C.3       1 CHM1        0.0000
     17 H151        1.4050    3.1790    2.4410 H         1 CHM1        0.0000
     18 H152        0.3630    1.7240    2.3330 H         1 CHM1        0.0000
     19 H153       -0.3190    3.3460    1.9560 H         1 CHM1        0.0000
     20 C4          3.3110    1.7040   -0.1910 C.2       1 CHM1        0.0000
     21 H4          3.9930    0.8580   -0.3540 H         1 CHM1        0.0000
     22 C5          3.9230    3.0870   -0.3390 C.3       1 CHM1        0.0000
     23 H5          4.0310    3.3360   -1.4150 H         1 CHM1        0.0000
     24 H5'         4.9420    3.1250    0.1080 H         1 CHM1        0.0000
     25 C6          3.0410    4.1430    0.3510 C.3       1 CHM1        0.0000
     26 H6          3.3840    5.1670    0.0970 H         1 CHM1        0.0000
     27 H6'         3.1340    4.0410    1.4550 H         1 CHM1        0.0000
     28 C14         1.5700    3.9630   -0.0420 C.3       1 CHM1        0.0000
     29 H14         0.9380    4.7600    0.4010 H         1 CHM1        0.0000
     30 H14'        1.4870    4.0480   -1.1460 H         1 CHM1        0.0000
@<TRIPOS>BOND
     1   11   10 1 
     2   23   22 1 
     3    2    1 1 
     4   30   28 1 
     5   15   13 1 
     6   10   12 1 
     7   10   13 1 
     8   10    9 1 
     9   21   20 1 
    10   22   20 1 
    11   22   24 1 
    12   22   25 1 
    13   20    8 2 
    14    1   13 1 
    15    1    5 1 
    16    1    3 1 
    17   13   14 1 
    18   28   25 1 
    19   28    9 1 
    20   28   29 1 
    21    6    5 1 
    22   26   25 1 
    23    8    9 1 
    24    8    5 1 
    25   25   27 1 
    26    9   16 1 
    27    5    7 1 
    28    3    4 1 
    29   16   19 1 
    30   16   18 1 
    31   16   17 1 
