@<TRIPOS>MOLECULE
C:\Users\Praveer\PycharmProjects\pdb_to_mol2_converter\data\pdb\chns.pdb
   53    56     0     0     0
SMALL
GASTEIGER

@<TRIPOS>ATOM
      1 C1          1.4080   -0.0040    0.0010 C.3       1 CHN1        0.0000
      2 H1          1.7640   -0.5370    0.9150 H         1 CHN1        0.0000
      3 O1         -0.0080   -0.0010    0.0040 O.3       1 CHN1        0.0000
      4 HO1        -0.2640    0.4320   -0.8130 H         1 CHN1        0.0000
      5 C2          1.9210    1.4460    0.0150 C.3       1 CHN1        0.0000
      6 H2          1.5400    1.9260    0.9460 H         1 CHN1        0.0000
      7 H2'         1.4610    1.9980   -0.8320 H         1 CHN1        0.0000
      8 C3          3.4320    1.5160   -0.0850 C.2       1 CHN1        0.0000
      9 C4          4.1650    2.1470    0.8470 C.2       1 CHN1        0.0000
     10 H4          3.6610    2.6500    1.6850 H         1 CHN1        0.0000
     11 C5          5.6600    2.2860    0.7850 C.3       1 CHN1        0.0000
     12 H5          6.1210    1.6160    1.5430 H         1 CHN1        0.0000
     13 H5'         5.9670    3.3260    1.0300 H         1 CHN1        0.0000
     14 C6          6.2370    1.9210   -0.6100 C.3       1 CHN1        0.0000
     15 H6          6.0090    2.7610   -1.3010 H         1 CHN1        0.0000
     16 C7          7.7430    1.7310   -0.5150 C.3       1 CHN1        0.0000
     17 H7          7.8970    0.8650    0.1790 H         1 CHN1        0.0000
     18 C8          8.6020    2.8740    0.0720 C.3       1 CHN1        0.0000
     19 H8          8.5300    2.9160    1.1760 H         1 CHN1        0.0000
     20 H8'         8.2690    3.8450   -0.3530 H         1 CHN1        0.0000
     21 C9         10.0300    2.5450   -0.4110 C.3       1 CHN1        0.0000
     22 H9         10.7060    2.2930    0.4310 H         1 CHN1        0.0000
     23 H9'        10.4460    3.4150   -0.9620 H         1 CHN1        0.0000
     24 C10         9.8780    1.3310   -1.3680 C.3       1 CHN1        0.0000
     25 H10        10.0210    0.4090   -0.7550 H         1 CHN1        0.0000
     26 C11         8.4150    1.3390   -1.8220 C.3       1 CHN1        0.0000
     27 CC11        8.2280    2.4420   -2.8990 C.3       1 CHN1        0.0000
     28 H111        8.6890    3.4000   -2.5910 H         1 CHN1        0.0000
     29 H112        7.1560    2.6300   -3.1030 H         1 CHN1        0.0000
     30 H113        8.6920    2.1230   -3.8550 H         1 CHN1        0.0000
     31 C12         7.8420   -0.0090   -2.2850 C.3       1 CHN1        0.0000
     32 H12         8.0880   -0.7860   -1.5280 H         1 CHN1        0.0000
     33 H12'        8.3040   -0.3060   -3.2490 H         1 CHN1        0.0000
     34 C13         6.3090    0.0790   -2.4280 C.3       1 CHN1        0.0000
     35 H13         5.9170   -0.9310   -2.6680 H         1 CHN1        0.0000
     36 H13'        6.0980    0.7330   -3.2980 H         1 CHN1        0.0000
     37 C14         5.5940    0.6340   -1.1540 C.3       1 CHN1        0.0000
     38 H14         5.7870   -0.1320   -0.3620 H         1 CHN1        0.0000
     39 C15         4.0470    0.7450   -1.2730 C.3       1 CHN1        0.0000
     40 CC15        3.6930    1.5170   -2.5730 C.3       1 CHN1        0.0000
     41 H151        4.2030    2.5020   -2.5990 H         1 CHN1        0.0000
     42 H152        2.6030    1.6890   -2.6650 H         1 CHN1        0.0000
     43 H153        3.9970    0.9380   -3.4670 H         1 CHN1        0.0000
     44 C16         3.4430   -0.6910   -1.3240 C.3       1 CHN1        0.0000
     45 H16         3.8510   -1.2760   -0.4680 H         1 CHN1        0.0000
     46 H16'        3.7690   -1.1950   -2.2580 H         1 CHN1        0.0000
     47 C17         1.9070   -0.7440   -1.2440 C.3       1 CHN1        0.0000
     48 H17         1.4760   -0.2790   -2.1560 H         1 CHN1        0.0000
     49 H17'        1.5670   -1.8020   -1.2070 H         1 CHN1        0.0000
     50 C18        10.9030    1.3010   -2.5190 C.3       1 CHN1        0.0000
     51 H181       11.9280    1.1800   -2.1080 H         1 CHN1        0.0000
     52 H182       10.8820    2.2430   -3.1040 H         1 CHN1        0.0000
     53 H183       10.6970    0.4500   -3.2010 H         1 CHN1        0.0000
@<TRIPOS>BOND
     1   30   27 1 
     2   43   40 1 
     3   36   34 1 
     4   33   31 1 
     5   53   50 1 
     6   52   50 1 
     7   29   27 1 
     8   27   28 1 
     9   27   26 1 
    10   35   34 1 
    11   42   40 1 
    12   41   40 1 
    13   40   39 1 
    14   50   51 1 
    15   50   24 1 
    16   34   31 1 
    17   34   37 1 
    18   31   26 1 
    19   31   32 1 
    20   46   44 1 
    21   48   47 1 
    22   26   24 1 
    23   26   16 1 
    24   24   25 1 
    25   24   21 1 
    26   44   39 1 
    27   44   47 1 
    28   44   45 1 
    29   15   14 1 
    30   39   37 1 
    31   39    8 1 
    32   47   49 1 
    33   47    1 1 
    34   37   14 1 
    35   37   38 1 
    36   23   21 1 
    37    7    5 1 
    38    4    3 1 
    39   14   16 1 
    40   14   11 1 
    41   16   18 1 
    42   16   17 1 
    43   21   18 1 
    44   21   22 1 
    45   20   18 1 
    46    8    5 1 
    47    8    9 2 
    48    1    3 1 
    49    1    5 1 
    50    1    2 1 
    51    5    6 1 
    52   18   19 1 
    53   11    9 1 
    54   11   13 1 
    55   11   12 1 
    56    9   10 1 
