@<TRIPOS>MOLECULE
C:\Users\Praveer\PycharmProjects\pdb_to_mol2_converter\data\pdb\chol.pdb
   21    20     0     0     0
SMALL
GASTEIGER

@<TRIPOS>ATOM
      1 N           1.4410   -0.0080    0.0250 N.4       1 CHO1        0.0000
      2 C1          1.9700    1.4290    0.0590 C.3       1 CHO1        0.0000
      3 C2          1.9780   -0.7160   -1.1860 C.3       1 CHO1        0.0000
      4 C3          1.8850   -0.7600    1.2460 C.3       1 CHO1        0.0000
      5 C4         -0.0590   -0.0190   -0.0410 C.3       1 CHO1        0.0000
      6 H11         1.3900    1.9950    0.7790 H         1 CHO1        0.0000
      7 H12         1.7870    1.8740   -0.9130 H         1 CHO1        0.0000
      8 H21         3.0670   -0.6240   -1.1940 H         1 CHO1        0.0000
      9 H22         1.6230   -0.2650   -2.1030 H         1 CHO1        0.0000
     10 H23         1.7220   -1.7650   -1.1910 H         1 CHO1        0.0000
     11 H31         1.5240   -0.2950    2.1540 H         1 CHO1        0.0000
     12 H32         2.9710   -0.7800    1.2850 H         1 CHO1        0.0000
     13 H33         1.5370   -1.7850    1.2250 H         1 CHO1        0.0000
     14 H41        -0.4180    0.5020   -0.9220 H         1 CHO1        0.0000
     15 H42        -0.4990    0.4480    0.8330 H         1 CHO1        0.0000
     16 H43        -0.4330   -1.0360   -0.0910 H         1 CHO1        0.0000
     17 C5          3.4730    1.6990    0.3740 C.3       1 CHO1        0.0000
     18 H51         3.7070    1.3970    1.4180 H         1 CHO1        0.0000
     19 H52         3.6460    2.7980    0.3040 H         1 CHO1        0.0000
     20 OH1         4.3770    1.0470   -0.5140 O.3       1 CHO1        0.0000
     21 HO1         5.2710    1.3530   -0.3100 H         1 CHO1        0.0000
@<TRIPOS>BOND
     1    9    3 1 
     2    8    3 1 
     3   10    3 1 
     4    3    1 1 
     5   14    5 1 
     6    7    2 1 
     7   20   21 1 
     8   20   17 1 
     9   16    5 1 
    10    5    1 1 
    11    5   15 1 
    12    1    2 1 
    13    1    4 1 
    14    2   17 1 
    15    2    6 1 
    16   19   17 1 
    17   17   18 1 
    18   13    4 1 
    19    4   12 1 
    20    4   11 1 
