@<TRIPOS>MOLECULE
C:\Users\Praveer\PycharmProjects\pdb_to_mol2_converter\data\pdb\chon.pdb
   17    17     0     0     0
SMALL
GASTEIGER

@<TRIPOS>ATOM
      1 O1         -0.7330   -0.5680    0.7080 O.2       1 CHO1        0.0000
      2 C1          0.0070    0.0500   -0.0530 C.2       1 CHO1        0.0000
      3 C6         -0.5150    0.8870   -1.1830 C.3       1 CHO1        0.0000
      4 C2          1.5010    0.0110    0.0650 C.3       1 CHO1        0.0000
      5 H6A        -1.6130    0.9900   -1.0600 H         1 CHO1        0.0000
      6 H6B        -0.3250    0.3320   -2.1250 H         1 CHO1        0.0000
      7 H2A         1.8840   -0.6280   -0.7580 H         1 CHO1        0.0000
      8 H2B         1.7610   -0.4760    1.0280 H         1 CHO1        0.0000
      9 C3          2.1640    1.4000   -0.0230 C.3       1 CHO1        0.0000
     10 H3A         3.2700    1.2900   -0.0560 H         1 CHO1        0.0000
     11 H3B         1.9100    1.9780    0.8960 H         1 CHO1        0.0000
     12 C4          1.6750    2.1930   -1.2450 C.3       1 CHO1        0.0000
     13 H4A         2.0240    1.6800   -2.1700 H         1 CHO1        0.0000
     14 H4B         2.1130    3.2150   -1.2360 H         1 CHO1        0.0000
     15 C5          0.1410    2.2790   -1.2740 C.3       1 CHO1        0.0000
     16 H5A        -0.1940    2.8910   -0.4050 H         1 CHO1        0.0000
     17 H5B        -0.1960    2.7960   -2.1990 H         1 CHO1        0.0000
@<TRIPOS>BOND
     1   17   15 1 
     2   13   12 1 
     3    6    3 1 
     4   15   12 1 
     5   15    3 1 
     6   15   16 1 
     7   12   14 1 
     8   12    9 1 
     9    3    5 1 
    10    3    2 1 
    11    7    4 1 
    12   10    9 1 
    13    2    4 1 
    14    2    1 2 
    15    9    4 1 
    16    9   11 1 
    17    4    8 1 
