@<TRIPOS>MOLECULE
C:\Users\Praveer\PycharmProjects\pdb_to_mol2_converter\data\pdb\chxe.pdb
   16    16     0     0     0
SMALL
GASTEIGER

@<TRIPOS>ATOM
      1 C1         -0.0070    0.1050   -0.0690 C.3       1 CHX1        0.0000
      2 H11        -0.3760    0.3600    0.9490 H         1 CHX1        0.0000
      3 H12        -0.4190   -0.8940   -0.3310 H         1 CHX1        0.0000
      4 C2          1.5320    0.0030   -0.0150 C.3       1 CHX1        0.0000
      5 H21         1.8930   -0.5300   -0.9240 H         1 CHX1        0.0000
      6 H22         1.8390   -0.5910    0.8730 H         1 CHX1        0.0000
      7 C3          2.1800    1.3940    0.0170 C.3       1 CHX1        0.0000
      8 H31         3.2860    1.3060    0.0850 H         1 CHX1        0.0000
      9 H32         1.8230    1.9250    0.9290 H         1 CHX1        0.0000
     10 C4          1.7960    2.2180   -1.2290 C.3       1 CHX1        0.0000
     11 H41         2.4000    1.8530   -2.0890 H         1 CHX1        0.0000
     12 H42         2.0780    3.2800   -1.0520 H         1 CHX1        0.0000
     13 C5          0.3300    2.0980   -1.5650 C.2       1 CHX1        0.0000
     14 H5         -0.0680    2.8220   -2.2930 H         1 CHX1        0.0000
     15 C6         -0.4760    1.1550   -1.0460 C.2       1 CHX1        0.0000
     16 H6         -1.5430    1.1340   -1.3150 H         1 CHX1        0.0000
@<TRIPOS>BOND
     1   14   13 1 
     2   11   10 1 
     3   13   10 1 
     4   13   15 2 
     5   16   15 1 
     6   10   12 1 
     7   10    7 1 
     8   15    1 1 
     9    5    4 1 
    10    3    1 1 
    11    1    4 1 
    12    1    2 1 
    13    4    7 1 
    14    4    6 1 
    15    7    8 1 
    16    7    9 1 
