@<TRIPOS>MOLECULE
C:\Users\Praveer\PycharmProjects\pdb_to_mol2_converter\data\pdb\cinl.pdb
   16    17     0     0     0
SMALL
GASTEIGER

@<TRIPOS>ATOM
      1 N1          2.0570    1.1690    0.0000 N.ar      1 CIN1        0.0000
      2 N2          1.4000    2.3530    0.0000 N.ar      1 CIN1        0.0000
      3 C3          0.0670    2.4120   -0.0000 C.ar      1 CIN1        0.0000
      4 H3         -0.4000    3.3870   -0.0000 H         1 CIN1        0.0000
      5 C4         -0.7020    1.2300   -0.0000 C.ar      1 CIN1        0.0000
      6 H4         -1.7760    1.2900   -0.0000 H         1 CIN1        0.0000
      7 C5         -0.0230   -0.0090   -0.0000 C.ar      1 CIN1        0.0000
      8 C6         -0.7160   -1.2260   -0.0000 C.ar      1 CIN1        0.0000
      9 H6         -1.7970   -1.2460   -0.0000 H         1 CIN1        0.0000
     10 C7         -0.0050   -2.4340   -0.0000 C.ar      1 CIN1        0.0000
     11 H7         -0.5430   -3.3730   -0.0000 H         1 CIN1        0.0000
     12 C8          1.3950   -2.4370    0.0000 C.ar      1 CIN1        0.0000
     13 H8          1.9330   -3.3750    0.0000 H         1 CIN1        0.0000
     14 C9          2.0990   -1.2230    0.0000 C.ar      1 CIN1        0.0000
     15 H9          3.1780   -1.2110    0.0000 H         1 CIN1        0.0000
     16 C10         1.4140   -0.0030    0.0000 C.ar      1 CIN1        0.0000
@<TRIPOS>BOND
     1    1    2 ar
     2    1   16 ar
     3    2    3 ar
     4    3    4 1 
     5    3    5 ar
     6    5    6 1 
     7    5    7 ar
     8    7    8 ar
     9    7   16 ar
    10    8    9 1 
    11    8   10 ar
    12   10   11 1 
    13   10   12 ar
    14   12   13 1 
    15   12   14 ar
    16   14   15 1 
    17   14   16 ar
