@<TRIPOS>MOLECULE
C:\Users\Praveer\PycharmProjects\pdb_to_mol2_converter\data\pdb\cjlipa.pdb
  316   317     0     0     0
SMALL
GASTEIGER

@<TRIPOS>ATOM
      1 HB6S       -7.9060    2.3590    1.1240 H         1 CJL1        0.0000
      2 OB6        -6.7090    0.9220    2.0620 O.3       1 CJL1        0.0000
      3 HOB6       -5.9310    0.4130    1.8120 H         1 CJL1        0.0000
      4 CB6        -7.0510    1.6820    0.8970 C.3       1 CJL1        0.0000
      5 HB6R       -7.3910    1.0030    0.0820 H         1 CJL1        0.0000
      6 CB5        -5.8660    2.4850    0.4110 C.3       1 CJL1        0.0000
      7 OB5        -4.7210    1.6310    0.2750 O.3       1 CJL1        0.0000
      8 HB5        -5.6610    3.2890    1.1580 H         1 CJL1        0.0000
      9 CB1        -3.5520    2.4090    0.0170 C.3       1 CJL1        0.0000
     10 HB1        -3.4060    3.1440    0.8400 H         1 CJL1        0.0000
     11 OA6        -2.4140    1.6080   -0.1040 O.3       1 CJL1        0.0000
     12 CA6        -2.1270    0.8610    1.0750 C.3       1 CJL1        0.0000
     13 HA6R       -2.5640   -0.1590    0.9850 H         1 CJL1        0.0000
     14 HA6S       -2.5610    1.3510    1.9750 H         1 CJL1        0.0000
     15 CB4        -6.0870    3.0900   -0.9500 C.3       1 CJL1        0.0000
     16 HB4        -6.2340    2.2380   -1.6680 H         1 CJL1        0.0000
     17 OB4        -7.2180    3.9560   -0.8600 O.3       1 CJL1        0.0000
     18 PB         -8.4360    3.8000   -1.9740 P.3       1 CJL1        0.0000
     19 OPB4       -9.1480    5.1430   -1.9730 O.3       1 CJL1        0.0000
     20 OPB3       -9.2640    2.6360   -1.4520 O.3       1 CJL1        0.0000
     21 OPB2       -7.7200    3.5040   -3.2920 O.2       1 CJL1        0.0000
     22 CB3        -4.9170    3.9130   -1.4110 C.3       1 CJL1        0.0000
     23 HB3        -4.8280    4.8050   -0.7400 H         1 CJL1        0.0000
     24 NB3        -5.2070    4.3460   -2.7430 N.am      1 CJL1        0.0000
     25 HNB3       -6.0600    3.9040   -3.0880 H         1 CJL1        0.0000
     26 C71        -5.0180    5.5650   -3.2280 C.2       1 CJL1        0.0000
     27 O71        -4.2200    6.3510   -2.7220 O.2       1 CJL1        0.0000
     28 C72        -5.7400    5.7920   -4.5480 C.3       1 CJL1        0.0000
     29 H72R       -6.8030    5.4980   -4.3860 H         1 CJL1        0.0000
     30 H72S       -5.3090    5.0630   -5.2670 H         1 CJL1        0.0000
     31 CB2        -3.6250    3.1340   -1.3120 C.3       1 CJL1        0.0000
     32 HB2        -3.6510    2.3460   -2.1090 H         1 CJL1        0.0000
     33 NB2        -2.4460    3.9770   -1.5040 N.am      1 CJL1        0.0000
     34 HNB2       -2.1930    4.5350   -0.7280 H         1 CJL1        0.0000
     35 CA4         0.0550    2.1500    1.2220 C.3       1 CJL1        0.0000
     36 HA4        -0.2270    2.7000    0.2940 H         1 CJL1        0.0000
     37 OA4        -0.4100    2.8980    2.3420 O.3       1 CJL1        0.0000
     38 HOA4       -0.1860    3.8220    2.1470 H         1 CJL1        0.0000
     39 CA5        -0.6170    0.7830    1.1780 C.3       1 CJL1        0.0000
     40 HA5        -0.3560    0.1980    2.0880 H         1 CJL1        0.0000
     41 OA5        -0.1540    0.0530    0.0360 O.3       1 CJL1        0.0000
     42 CA1         1.2620   -0.1670    0.0290 C.3       1 CJL1        0.0000
     43 HA1         1.4530   -0.6580   -0.9580 H         1 CJL1        0.0000
     44 OA1         1.6370   -1.0030    1.1090 O.3       1 CJL1        0.0000
     45 OPA2        2.7470   -3.0250    2.0890 O.3       1 CJL1        0.0000
     46 OPA3        2.5330   -2.7770   -0.4460 O.2       1 CJL1        0.0000
     47 OPA4        4.1150   -1.2670    0.8420 O.3       1 CJL1        0.0000
     48 PA          2.8410   -2.1050    0.8840 P.3       1 CJL1        0.0000
     49 CA3         1.5650    2.0050    1.2160 C.3       1 CJL1        0.0000
     50 HA3         1.8290    1.4150    2.1310 H         1 CJL1        0.0000
     51 OA3         2.4040    3.1660    1.2210 O.3       1 CJL1        0.0000
     52 C31         2.0260    4.4070    1.0950 C.2       1 CJL1        0.0000
     53 O31         0.8830    4.8450    1.0850 O.2       1 CJL1        0.0000
     54 C32         3.2800    5.2560    1.2760 C.3       1 CJL1        0.0000
     55 H32R        3.9910    4.9860    0.4680 H         1 CJL1        0.0000
     56 H32S        3.7400    4.9880    2.2480 H         1 CJL1        0.0000
     57 CA2         1.9540    1.1730    0.0100 C.3       1 CJL1        0.0000
     58 HA2         1.5220    1.6780   -0.8940 H         1 CJL1        0.0000
     59 NA2         3.3710    1.0070   -0.2100 N.am      1 CJL1        0.0000
     60 HNA2        3.7290    0.1300    0.1850 H         1 CJL1        0.0000
     61 C73        -5.7380    7.2050   -5.1610 C.3       1 CJL1        0.0000
     62 H73R       -6.4770    7.8480   -4.6160 H         1 CJL1        0.0000
     63 O73        -6.0980    6.9840   -6.5280 O.3       1 CJL1        0.0000
     64 C81        -7.3910    6.9680   -6.7920 C.2       1 CJL1        0.0000
     65 O81        -8.2580    7.5170   -6.1380 O.2       1 CJL1        0.0000
     66 C82        -7.6460    6.3640   -8.1860 C.3       1 CJL1        0.0000
     67 H82R       -8.2860    7.0970   -8.7140 H         1 CJL1        0.0000
     68 H82S       -8.2450    5.4400   -8.0400 H         1 CJL1        0.0000
     69 C83        -6.4010    6.0420   -9.0550 C.3       1 CJL1        0.0000
     70 H83R       -6.2280    4.9430   -9.0470 H         1 CJL1        0.0000
     71 H83S       -5.4850    6.5220   -8.6490 H         1 CJL1        0.0000
     72 C84        -6.5410    6.5540  -10.4960 C.3       1 CJL1        0.0000
     73 H84R       -6.7020    7.6560  -10.4420 H         1 CJL1        0.0000
     74 H84S       -7.4360    6.1060  -10.9790 H         1 CJL1        0.0000
     75 C85        -5.2950    6.2830  -11.3560 C.3       1 CJL1        0.0000
     76 H85R       -5.4610    5.3700  -11.9690 H         1 CJL1        0.0000
     77 H85S       -4.4250    6.0810  -10.6930 H         1 CJL1        0.0000
     78 C86        -4.9420    7.4680  -12.2670 C.3       1 CJL1        0.0000
     79 H86R       -4.7020    8.3510  -11.6310 H         1 CJL1        0.0000
     80 H86S       -5.8360    7.7250  -12.8770 H         1 CJL1        0.0000
     81 C87        -3.7510    7.2050  -13.2020 C.3       1 CJL1        0.0000
     82 H87R       -3.8790    6.2210  -13.7070 H         1 CJL1        0.0000
     83 H87S       -2.8260    7.1540  -12.5870 H         1 CJL1        0.0000
     84 C88        -3.6100    8.2990  -14.2720 C.3       1 CJL1        0.0000
     85 H88R       -3.9900    9.2610  -13.8560 H         1 CJL1        0.0000
     86 H88S       -4.2570    8.0350  -15.1390 H         1 CJL1        0.0000
     87 C89        -2.1750    8.5610  -14.7570 C.3       1 CJL1        0.0000
     88 H89R       -1.5940    9.0210  -13.9260 H         1 CJL1        0.0000
     89 H89S       -2.2280    9.3090  -15.5810 H         1 CJL1        0.0000
     90 C810       -1.4170    7.3220  -15.2540 C.3       1 CJL1        0.0000
     91 H810       -2.0720    6.7230  -15.9260 H         1 CJL1        0.0000
     92 H810       -1.1510    6.6860  -14.3810 H         1 CJL1        0.0000
     93 C811       -0.1380    7.6960  -16.0220 C.3       1 CJL1        0.0000
     94 H811        0.3600    8.5540  -15.5160 H         1 CJL1        0.0000
     95 H811       -0.4300    8.0310  -17.0420 H         1 CJL1        0.0000
     96 C812        0.8760    6.5460  -16.1240 C.3       1 CJL1        0.0000
     97 H812        0.3330    5.5870  -16.2830 H         1 CJL1        0.0000
     98 H812        1.4100    6.4640  -15.1510 H         1 CJL1        0.0000
     99 C813        1.8910    6.7270  -17.2660 C.3       1 CJL1        0.0000
    100 H813        1.8590    7.7740  -17.6420 H         1 CJL1        0.0000
    101 H813        1.5870    6.0660  -18.1090 H         1 CJL1        0.0000
    102 C814        3.3420    6.4110  -16.8710 C.3       1 CJL1        0.0000
    103 H814        3.3650    5.5790  -16.1320 H         1 CJL1        0.0000
    104 H814        3.7740    7.3110  -16.3770 H         1 CJL1        0.0000
    105 C815        4.2100    6.0210  -18.0770 C.3       1 CJL1        0.0000
    106 H815        3.7630    6.4580  -19.0000 H         1 CJL1        0.0000
    107 H815        4.1820    4.9130  -18.1910 H         1 CJL1        0.0000
    108 C816        5.6630    6.4950  -17.9840 C.3       1 CJL1        0.0000
    109 H816        6.1380    6.1400  -17.0450 H         1 CJL1        0.0000
    110 H816        5.7070    7.6050  -18.0040 H         1 CJL1        0.0000
    111 H816        6.2500    6.1070  -18.8450 H         1 CJL1        0.0000
    112 C74        -4.3770    7.9410   -5.1740 C.3       1 CJL1        0.0000
    113 H74R       -3.6020    7.2850   -5.6220 H         1 CJL1        0.0000
    114 H74S       -4.0800    8.1440   -4.1260 H         1 CJL1        0.0000
    115 C75        -4.4280    9.2960   -5.9010 C.3       1 CJL1        0.0000
    116 H75R       -3.8830   10.0760   -5.3220 H         1 CJL1        0.0000
    117 H75S       -5.4940    9.6100   -5.9490 H         1 CJL1        0.0000
    118 C76        -3.8540    9.2240   -7.3190 C.3       1 CJL1        0.0000
    119 H76R       -4.1220    8.2440   -7.7770 H         1 CJL1        0.0000
    120 H76S       -2.7460    9.2520   -7.2460 H         1 CJL1        0.0000
    121 C77        -4.3660   10.3480   -8.2310 C.3       1 CJL1        0.0000
    122 H77R       -5.1180   10.9710   -7.7000 H         1 CJL1        0.0000
    123 H77S       -4.8790    9.8730   -9.0980 H         1 CJL1        0.0000
    124 C78        -3.2420   11.2450   -8.7580 C.3       1 CJL1        0.0000
    125 H78R       -2.4240   10.5730   -9.1070 H         1 CJL1        0.0000
    126 H78S       -2.8340   11.8760   -7.9400 H         1 CJL1        0.0000
    127 C79        -3.6820   12.1140   -9.9460 C.3       1 CJL1        0.0000
    128 H79R       -4.2950   12.9750   -9.6040 H         1 CJL1        0.0000
    129 H79S       -4.3270   11.4860  -10.6020 H         1 CJL1        0.0000
    130 C710       -2.4850   12.5900  -10.7830 C.3       1 CJL1        0.0000
    131 H710       -1.7780   11.7310  -10.8660 H         1 CJL1        0.0000
    132 H710       -1.9460   13.4130  -10.2700 H         1 CJL1        0.0000
    133 C711       -2.8500   12.9830  -12.2210 C.3       1 CJL1        0.0000
    134 H711       -3.6560   12.3150  -12.6000 H         1 CJL1        0.0000
    135 H711       -1.9520   12.8120  -12.8590 H         1 CJL1        0.0000
    136 C712       -3.2730   14.4470  -12.3940 C.3       1 CJL1        0.0000
    137 H712       -2.5380   15.1110  -11.8860 H         1 CJL1        0.0000
    138 H712       -4.2630   14.6020  -11.9130 H         1 CJL1        0.0000
    139 C713       -3.3450   14.8320  -13.8800 C.3       1 CJL1        0.0000
    140 H713       -3.8340   14.0000  -14.4370 H         1 CJL1        0.0000
    141 H713       -2.3060   14.9240  -14.2710 H         1 CJL1        0.0000
    142 C714       -4.1140   16.1240  -14.1600 C.3       1 CJL1        0.0000
    143 H714       -3.6720   16.9770  -13.6030 H         1 CJL1        0.0000
    144 H714       -5.1770   16.0140  -13.8530 H         1 CJL1        0.0000
    145 H714       -4.0900   16.3600  -15.2470 H         1 CJL1        0.0000
    146 C51        -1.6060    3.9450   -2.5490 C.2       1 CJL1        0.0000
    147 O51        -1.8720    3.4240   -3.6250 O.2       1 CJL1        0.0000
    148 C52        -0.2340    4.5370   -2.2900 C.3       1 CJL1        0.0000
    149 H52R        0.4040    3.7140   -1.8970 H         1 CJL1        0.0000
    150 H52S       -0.3060    5.3380   -1.5280 H         1 CJL1        0.0000
    151 C53         0.4110    5.0870   -3.5740 C.3       1 CJL1        0.0000
    152 H53R        0.3220    4.3220   -4.3850 H         1 CJL1        0.0000
    153 O53         1.7750    5.3760   -3.2270 O.3       1 CJL1        0.0000
    154 C61         2.6970    4.8660   -4.0410 C.2       1 CJL1        0.0000
    155 O61         2.4850    4.2890   -5.0910 O.2       1 CJL1        0.0000
    156 C62         4.0930    5.2520   -3.5580 C.3       1 CJL1        0.0000
    157 H62R        4.8270    4.7300   -4.2030 H         1 CJL1        0.0000
    158 H62S        4.2020    4.8710   -2.5230 H         1 CJL1        0.0000
    159 C63         4.3550    6.7710   -3.5610 C.3       1 CJL1        0.0000
    160 H63R        5.3090    6.9570   -3.0150 H         1 CJL1        0.0000
    161 H63S        3.5510    7.3040   -3.0110 H         1 CJL1        0.0000
    162 C64         4.4940    7.3830   -4.9580 C.3       1 CJL1        0.0000
    163 H64R        3.5670    7.2250   -5.5510 H         1 CJL1        0.0000
    164 H64S        5.3260    6.8840   -5.5010 H         1 CJL1        0.0000
    165 C65         4.7780    8.8850   -4.8540 C.3       1 CJL1        0.0000
    166 H65R        5.6820    9.0300   -4.2190 H         1 CJL1        0.0000
    167 H65S        3.9230    9.3860   -4.3480 H         1 CJL1        0.0000
    168 C66         5.0260    9.5510   -6.2080 C.3       1 CJL1        0.0000
    169 H66R        4.1310    9.4410   -6.8600 H         1 CJL1        0.0000
    170 H66S        5.8720    9.0330   -6.7090 H         1 CJL1        0.0000
    171 C67         5.3630   11.0380   -6.0540 C.3       1 CJL1        0.0000
    172 H67R        6.0150   11.1850   -5.1630 H         1 CJL1        0.0000
    173 H67S        4.4190   11.5980   -5.8700 H         1 CJL1        0.0000
    174 C68         6.0860   11.6070   -7.2790 C.3       1 CJL1        0.0000
    175 H68R        5.9500   10.9210   -8.1440 H         1 CJL1        0.0000
    176 H68S        7.1770   11.6540   -7.0610 H         1 CJL1        0.0000
    177 C69         5.5840   12.9980   -7.6760 C.3       1 CJL1        0.0000
    178 H69R        5.6820   13.6800   -6.8020 H         1 CJL1        0.0000
    179 H69S        4.5050   12.9450   -7.9480 H         1 CJL1        0.0000
    180 C610        6.3790   13.5720   -8.8520 C.3       1 CJL1        0.0000
    181 H610        6.0990   13.0340   -9.7850 H         1 CJL1        0.0000
    182 H610        7.4630   13.3980   -8.6720 H         1 CJL1        0.0000
    183 C611        6.1700   15.0780   -9.0310 C.3       1 CJL1        0.0000
    184 H611        6.5670   15.6020   -8.1320 H         1 CJL1        0.0000
    185 H611        5.0820   15.3010   -9.0980 H         1 CJL1        0.0000
    186 C612        6.8770   15.6130  -10.2810 C.3       1 CJL1        0.0000
    187 H612        6.3750   15.1970  -11.1820 H         1 CJL1        0.0000
    188 H612        7.9330   15.2590  -10.2950 H         1 CJL1        0.0000
    189 C613        6.8660   17.1430  -10.3470 C.3       1 CJL1        0.0000
    190 H613        7.6090   17.5400   -9.6190 H         1 CJL1        0.0000
    191 H613        5.8620   17.5180  -10.0420 H         1 CJL1        0.0000
    192 C614        7.1770   17.6760  -11.7500 C.3       1 CJL1        0.0000
    193 H614        6.3220   17.4350  -12.4210 H         1 CJL1        0.0000
    194 H614        8.0780   17.1600  -12.1520 H         1 CJL1        0.0000
    195 C615        7.4240   19.1890  -11.7590 C.3       1 CJL1        0.0000
    196 H615        8.3600   19.3980  -11.1920 H         1 CJL1        0.0000
    197 H615        6.5890   19.6940  -11.2220 H         1 CJL1        0.0000
    198 C616        7.5400   19.7740  -13.1680 C.3       1 CJL1        0.0000
    199 H616        6.5790   19.6590  -13.7140 H         1 CJL1        0.0000
    200 H616        8.3350   19.2510  -13.7420 H         1 CJL1        0.0000
    201 H616        7.7910   20.8560  -13.1240 H         1 CJL1        0.0000
    202 C54        -0.2600    6.3970   -4.0590 C.3       1 CJL1        0.0000
    203 H54R       -0.3470    7.0980   -3.2020 H         1 CJL1        0.0000
    204 H54S       -1.2890    6.1580   -4.4090 H         1 CJL1        0.0000
    205 C55         0.5170    7.0850   -5.1960 C.3       1 CJL1        0.0000
    206 H55R        0.7310    6.3300   -5.9860 H         1 CJL1        0.0000
    207 H55S        1.4890    7.4480   -4.7930 H         1 CJL1        0.0000
    208 C56        -0.2030    8.2710   -5.8460 C.3       1 CJL1        0.0000
    209 H56R       -0.3210    9.0800   -5.0980 H         1 CJL1        0.0000
    210 H56S       -1.2240    7.9600   -6.1550 H         1 CJL1        0.0000
    211 C57         0.5690    8.7870   -7.0720 C.3       1 CJL1        0.0000
    212 H57R        0.1650    8.2750   -7.9740 H         1 CJL1        0.0000
    213 H57S        1.6420    8.5000   -6.9820 H         1 CJL1        0.0000
    214 C58         0.5160   10.3080   -7.2740 C.3       1 CJL1        0.0000
    215 H58R        1.1690   10.7990   -6.5170 H         1 CJL1        0.0000
    216 H58S       -0.5230   10.6740   -7.1210 H         1 CJL1        0.0000
    217 C59         0.9840   10.6910   -8.6830 C.3       1 CJL1        0.0000
    218 H59R        0.2640   10.2660   -9.4190 H         1 CJL1        0.0000
    219 H59S        1.9780   10.2250   -8.8700 H         1 CJL1        0.0000
    220 C510        1.0970   12.2010   -8.9250 C.3       1 CJL1        0.0000
    221 H510        1.7700   12.6540   -8.1630 H         1 CJL1        0.0000
    222 H510        0.0900   12.6590   -8.8100 H         1 CJL1        0.0000
    223 C511        1.6450   12.5080  -10.3270 C.3       1 CJL1        0.0000
    224 H511        1.1860   11.8060  -11.0600 H         1 CJL1        0.0000
    225 H511        2.7430   12.3240  -10.3310 H         1 CJL1        0.0000
    226 C512        1.3470   13.9380  -10.7970 C.3       1 CJL1        0.0000
    227 H512        1.5820   14.6630   -9.9890 H         1 CJL1        0.0000
    228 H512        0.2570   14.0150  -11.0090 H         1 CJL1        0.0000
    229 C513        2.1300   14.3300  -12.0580 C.3       1 CJL1        0.0000
    230 H513        1.5300   15.0720  -12.6340 H         1 CJL1        0.0000
    231 H513        2.2550   13.4320  -12.7040 H         1 CJL1        0.0000
    232 C514        3.4960   14.9470  -11.7530 C.3       1 CJL1        0.0000
    233 H514        4.1100   14.2480  -11.1450 H         1 CJL1        0.0000
    234 H514        3.3730   15.8910  -11.1800 H         1 CJL1        0.0000
    235 H514        4.0440   15.1760  -12.6920 H         1 CJL1        0.0000
    236 C33         3.0030    6.7680    1.2410 C.3       1 CJL1        0.0000
    237 H33R        3.9580    7.2990    1.4740 H         1 CJL1        0.0000
    238 O33         2.0790    7.1050    2.2570 O.3       1 CJL1        0.0000
    239 HO33        1.2160    6.6920    2.1320 H         1 CJL1        0.0000
    240 C34         2.5000    7.2800   -0.1210 C.3       1 CJL1        0.0000
    241 H34R        1.5160    6.8220   -0.3620 H         1 CJL1        0.0000
    242 H34S        3.2220    6.9410   -0.8940 H         1 CJL1        0.0000
    243 C35         2.3580    8.8100   -0.2060 C.3       1 CJL1        0.0000
    244 H35R        3.2870    9.3010    0.1590 H         1 CJL1        0.0000
    245 H35S        1.5300    9.1230    0.4710 H         1 CJL1        0.0000
    246 C36         2.0530    9.2870   -1.6340 C.3       1 CJL1        0.0000
    247 H36R        1.7040    8.4170   -2.2360 H         1 CJL1        0.0000
    248 H36S        2.9860    9.6680   -2.1050 H         1 CJL1        0.0000
    249 C37         0.9590   10.3610   -1.6890 C.3       1 CJL1        0.0000
    250 H37R        1.2790   11.2490   -1.1030 H         1 CJL1        0.0000
    251 H37S        0.0460    9.9530   -1.1970 H         1 CJL1        0.0000
    252 C38         0.5900   10.7670   -3.1250 C.3       1 CJL1        0.0000
    253 H38R       -0.5020   10.5910   -3.2580 H         1 CJL1        0.0000
    254 H38S        1.1200   10.1070   -3.8480 H         1 CJL1        0.0000
    255 C39         0.9000   12.2320   -3.4600 C.3       1 CJL1        0.0000
    256 H39R        1.8750   12.2870   -3.9940 H         1 CJL1        0.0000
    257 H39S        0.9990   12.8200   -2.5210 H         1 CJL1        0.0000
    258 C310       -0.1900   12.9010   -4.3130 C.3       1 CJL1        0.0000
    259 H310       -1.1790   12.7950   -3.8120 H         1 CJL1        0.0000
    260 H310       -0.2450   12.3700   -5.2880 H         1 CJL1        0.0000
    261 C311        0.1070   14.3910   -4.5420 C.3       1 CJL1        0.0000
    262 H311        1.2150   14.5160   -4.5500 H         1 CJL1        0.0000
    263 H311       -0.2780   14.9860   -3.6850 H         1 CJL1        0.0000
    264 C312       -0.4270   14.9490   -5.8720 C.3       1 CJL1        0.0000
    265 H312       -0.7620   14.1210   -6.5330 H         1 CJL1        0.0000
    266 H312        0.4170   15.4590   -6.3910 H         1 CJL1        0.0000
    267 C313       -1.5600   15.9700   -5.7110 C.3       1 CJL1        0.0000
    268 H313       -1.2670   16.7080   -4.9300 H         1 CJL1        0.0000
    269 H313       -2.4770   15.4490   -5.3560 H         1 CJL1        0.0000
    270 C314       -1.8630   16.7260   -7.0090 C.3       1 CJL1        0.0000
    271 H314       -2.1540   16.0190   -7.8140 H         1 CJL1        0.0000
    272 H314       -0.9620   17.2850   -7.3460 H         1 CJL1        0.0000
    273 H314       -2.6880   17.4550   -6.8590 H         1 CJL1        0.0000
    274 C11         4.0660    1.6290   -1.1490 C.2       1 CJL1        0.0000
    275 O11         3.8300    2.7900   -1.4730 O.2       1 CJL1        0.0000
    276 C12         5.0840    0.7710   -1.8710 C.3       1 CJL1        0.0000
    277 H12R        4.4950   -0.0150   -2.3930 H         1 CJL1        0.0000
    278 H12S        5.7250    0.2510   -1.1290 H         1 CJL1        0.0000
    279 C13         5.9170    1.5830   -2.8760 C.3       1 CJL1        0.0000
    280 H13R        5.3050    2.3830   -3.3540 H         1 CJL1        0.0000
    281 O13         6.3270    0.6900   -3.8950 O.3       1 CJL1        0.0000
    282 HO13        5.5970    0.2830   -4.3680 H         1 CJL1        0.0000
    283 C14         7.1790    2.1820   -2.2220 C.3       1 CJL1        0.0000
    284 H14R        7.6960    1.3520   -1.6890 H         1 CJL1        0.0000
    285 H14S        6.8660    2.9190   -1.4530 H         1 CJL1        0.0000
    286 C15         8.2070    2.8370   -3.1690 C.3       1 CJL1        0.0000
    287 H15R        8.5820    2.0840   -3.8990 H         1 CJL1        0.0000
    288 H15S        9.0750    3.1560   -2.5490 H         1 CJL1        0.0000
    289 C16         7.6710    4.0570   -3.9290 C.3       1 CJL1        0.0000
    290 H16R        7.0350    4.6590   -3.2430 H         1 CJL1        0.0000
    291 H16S        7.0350    3.7090   -4.7730 H         1 CJL1        0.0000
    292 C17         8.7950    4.9560   -4.4660 C.3       1 CJL1        0.0000
    293 H17R        9.4830    4.3510   -5.0960 H         1 CJL1        0.0000
    294 H17S        9.3770    5.3500   -3.6030 H         1 CJL1        0.0000
    295 C18         8.2610    6.1380   -5.2840 C.3       1 CJL1        0.0000
    296 H18R        7.5080    6.6750   -4.6640 H         1 CJL1        0.0000
    297 H18S        7.7380    5.7520   -6.1860 H         1 CJL1        0.0000
    298 C19         9.3430    7.1450   -5.7050 C.3       1 CJL1        0.0000
    299 H19R       10.0680    6.6660   -6.3980 H         1 CJL1        0.0000
    300 H19S        9.9020    7.4700   -4.8000 H         1 CJL1        0.0000
    301 C110        8.7170    8.3810   -6.3630 C.3       1 CJL1        0.0000
    302 H110        7.9140    8.7380   -5.6780 H         1 CJL1        0.0000
    303 H110        8.2320    8.0970   -7.3210 H         1 CJL1        0.0000
    304 C111        9.6820    9.5570   -6.5800 C.3       1 CJL1        0.0000
    305 H111       10.4560    9.5790   -5.7850 H         1 CJL1        0.0000
    306 H111        9.0740   10.4820   -6.4700 H         1 CJL1        0.0000
    307 C112       10.3350    9.5720   -7.9710 C.3       1 CJL1        0.0000
    308 H112        9.5470    9.3820   -8.7340 H         1 CJL1        0.0000
    309 H112       11.0770    8.7470   -8.0390 H         1 CJL1        0.0000
    310 C113       11.0160   10.9050   -8.3310 C.3       1 CJL1        0.0000
    311 H113       11.4440   10.8040   -9.3540 H         1 CJL1        0.0000
    312 H113       11.8640   11.0810   -7.6330 H         1 CJL1        0.0000
    313 C114       10.0850   12.1230   -8.3070 C.3       1 CJL1        0.0000
    314 H114        9.8110   12.3870   -7.2630 H         1 CJL1        0.0000
    315 H114        9.1550   11.9010   -8.8710 H         1 CJL1        0.0000
    316 H114       10.5760   13.0060   -8.7680 H         1 CJL1        0.0000
@<TRIPOS>BOND
     1  106  105 1 
     2  111  108 1 
     3  107  105 1 
     4  101   99 1 
     5  105  108 1 
     6  105  102 1 
     7  110  108 1 
     8  108  109 1 
     9  100   99 1 
    10   99  102 1 
    11   99   96 1 
    12   95   93 1 
    13  102  104 1 
    14  102  103 1 
    15   97   96 1 
    16   96   93 1 
    17   96   98 1 
    18   93   94 1 
    19   93   90 1 
    20   91   90 1 
    21   89   87 1 
    22   90   87 1 
    23   90   92 1 
    24  145  142 1 
    25   86   84 1 
    26   87   84 1 
    27   87   88 1 
    28  140  139 1 
    29   84   85 1 
    30   84   81 1 
    31  141  139 1 
    32  142  139 1 
    33  142  144 1 
    34  142  143 1 
    35  139  136 1 
    36  200  198 1 
    37  199  198 1 
    38   82   81 1 
    39   81   83 1 
    40   81   78 1 
    41  198  201 1 
    42  198  195 1 
    43   80   78 1 
    44  135  133 1 
    45  231  229 1 
    46  235  232 1 
    47  230  229 1 
    48  134  133 1 
    49  193  192 1 
    50  136  133 1 
    51  136  138 1 
    52  136  137 1 
    53   78   79 1 
    54   78   75 1 
    55  133  130 1 
    56  194  192 1 
    57  229  232 1 
    58  229  226 1 
    59   76   75 1 
    60  195  192 1 
    61  195  197 1 
    62  195  196 1 
    63  232  234 1 
    64  232  233 1 
    65  192  189 1 
    66   75   77 1 
    67   75   72 1 
    68  187  186 1 
    69  224  223 1 
    70  228  226 1 
    71   74   72 1 
    72  131  130 1 
    73  226  223 1 
    74  226  227 1 
    75  130  132 1 
    76  130  127 1 
    77  129  127 1 
    78   72   73 1 
    79   72   69 1 
    80  189  186 1 
    81  189  191 1 
    82  189  190 1 
    83  225  223 1 
    84  223  220 1 
    85  188  186 1 
    86  186  183 1 
    87  127  128 1 
    88  127  124 1 
    89  181  180 1 
    90  218  217 1 
    91  311  310 1 
    92  125  124 1 
    93  123  121 1 
    94  185  183 1 
    95   69   70 1 
    96   69   71 1 
    97   69   66 1 
    98  183  180 1 
    99  183  184 1 
   100  220  222 1 
   101  220  217 1 
   102  220  221 1 
   103  315  313 1 
   104  219  217 1 
   105  180  182 1 
   106  180  177 1 
   107  316  313 1 
   108  124  121 1 
   109  124  126 1 
   110  308  307 1 
   111   67   66 1 
   112  217  214 1 
   113  310  313 1 
   114  310  307 1 
   115  310  312 1 
   116  313  314 1 
   117  121  122 1 
   118  121  118 1 
   119   66   68 1 
   120   66   64 1 
   121  175  174 1 
   122  309  307 1 
   123  212  211 1 
   124  307  304 1 
   125  179  177 1 
   126  271  270 1 
   127  119  118 1 
   128  177  174 1 
   129  177  178 1 
   130  272  270 1 
   131  303  301 1 
   132  118  120 1 
   133  118  115 1 
   134  174  176 1 
   135  174  171 1 
   136  214  216 1 
   137  214  211 1 
   138  214  215 1 
   139  211  213 1 
   140  211  208 1 
   141  270  273 1 
   142  270  267 1 
   143  169  168 1 
   144   64   63 1 
   145   64   65 2 
   146  170  168 1 
   147  304  306 1 
   148  304  301 1 
   149  304  305 1 
   150  265  264 1 
   151   63   61 1 
   152  299  298 1 
   153  266  264 1 
   154  301  298 1 
   155  301  302 1 
   156  168  171 1 
   157  168  165 1 
   158  297  295 1 
   159  210  208 1 
   160  171  173 1 
   161  171  172 1 
   162  206  205 1 
   163  117  115 1 
   164  115  116 1 
   165  115  112 1 
   166  264  267 1 
   167  264  261 1 
   168  208  205 1 
   169  208  209 1 
   170  267  269 1 
   171  267  268 1 
   172  298  295 1 
   173  298  300 1 
   174  113  112 1 
   175  163  162 1 
   176  164  162 1 
   177  260  258 1 
   178  295  296 1 
   179  295  292 1 
   180   30   28 1 
   181  205  207 1 
   182  205  202 1 
   183  112   61 1 
   184  112  114 1 
   185   61   62 1 
   186   61   28 1 
   187  293  292 1 
   188  155  154 2 
   189  162  165 1 
   190  162  159 1 
   191  165  167 1 
   192  165  166 1 
   193  291  289 1 
   194  262  261 1 
   195   28   29 1 
   196   28   26 1 
   197  261  258 1 
   198  261  263 1 
   199  292  289 1 
   200  292  294 1 
   201  204  202 1 
   202  152  151 1 
   203  282  281 1 
   204  258  259 1 
   205  258  255 1 
   206  157  156 1 
   207  202  151 1 
   208  202  203 1 
   209  154  156 1 
   210  154  153 1 
   211  256  255 1 
   212  289  290 1 
   213  289  286 1 
   214  287  286 1 
   215  281  279 1 
   216  254  252 1 
   217  147  146 2 
   218  151  153 1 
   219  151  148 1 
   220  159  156 1 
   221  159  160 1 
   222  159  161 1 
   223  156  158 1 
   224  255  252 1 
   225  255  257 1 
   226  280  279 1 
   227   21   18 2 
   228  253  252 1 
   229   26   24 am
   230   26   27 2 
   231  286  288 1 
   232  286  283 1 
   233  252  249 1 
   234   25   24 1 
   235  279  283 1 
   236  279  276 1 
   237   24   22 1 
   238  146  148 1 
   239  146   33 am
   240  277  276 1 
   241  148  149 1 
   242  148  150 1 
   243  247  246 1 
   244  283  284 1 
   245  283  285 1 
   246   32   31 1 
   247  248  246 1 
   248   18   19 1 
   249   18   20 1 
   250   18   17 1 
   251  276  274 1 
   252  276  278 1 
   253  249  246 1 
   254  249  251 1 
   255  249  250 1 
   256   16   15 1 
   257  246  243 1 
   258   33   31 1 
   259   33   34 1 
   260  275  274 2 
   261   22   31 1 
   262   22   15 1 
   263   22   23 1 
   264   31    9 1 
   265  274   59 am
   266   43   42 1 
   267   15   17 1 
   268   15    6 1 
   269  242  240 1 
   270   58   57 1 
   271   46   48 2 
   272  241  240 1 
   273   59   57 1 
   274   59   60 1 
   275  243  240 1 
   276  243  244 1 
   277  243  245 1 
   278  240  236 1 
   279   11    9 1 
   280   11   12 1 
   281   57   42 1 
   282   57   49 1 
   283    9    7 1 
   284    9   10 1 
   285   42   41 1 
   286   42   44 1 
   287   41   39 1 
   288    5    4 1 
   289    7    6 1 
   290   36   35 1 
   291    6    4 1 
   292    6    8 1 
   293   55   54 1 
   294   47   48 1 
   295   48   44 1 
   296   48   45 1 
   297    4    1 1 
   298    4    2 1 
   299   13   12 1 
   300   12   39 1 
   301   12   14 1 
   302   53   52 2 
   303   52   51 1 
   304   52   54 1 
   305   39   35 1 
   306   39   40 1 
   307   49   51 1 
   308   49   35 1 
   309   49   50 1 
   310   35   37 1 
   311  236   54 1 
   312  236  237 1 
   313  236  238 1 
   314   54   56 1 
   315    3    2 1 
   316  239  238 1 
   317   38   37 1 
