@<TRIPOS>MOLECULE
C:\Users\Praveer\PycharmProjects\pdb_to_mol2_converter\data\pdb\clet.pdb
    8     7     0     0     0
SMALL
GASTEIGER

@<TRIPOS>ATOM
      1 C1          1.7880   -0.0010    0.0010 C.3       1 CLE1        0.0000
      2 CL11        0.0000   -0.0030    0.0000 Cl        1 CLE1        0.0000
      3 H12         2.1130   -0.5600   -0.9040 H         1 CLE1        0.0000
      4 H13         2.1130   -0.5610    0.9050 H         1 CLE1        0.0000
      5 C2          2.3650    1.4170    0.0020 C.3       1 CLE1        0.0000
      6 H21         2.0290    1.9750    0.9030 H         1 CLE1        0.0000
      7 H22         2.0290    1.9760   -0.8990 H         1 CLE1        0.0000
      8 H23         3.4760    1.3900    0.0020 H         1 CLE1        0.0000
@<TRIPOS>BOND
     1    3    1 1 
     2    7    5 1 
     3    2    1 1 
     4    1    5 1 
     5    1    4 1 
     6    5    8 1 
     7    5    6 1 
