@<TRIPOS>MOLECULE
C:\Users\Praveer\PycharmProjects\pdb_to_mol2_converter\data\pdb\clm1.pdb
   30    31     0     0     0
SMALL
GASTEIGER

@<TRIPOS>ATOM
      1 C1         -0.0710   -0.2440    0.0400 C.3       1 CLM1        0.0000
      2 O1         -0.3810   -0.8640    1.2770 O.3       1 CLM1        0.0000
      3 HO1        -0.1000   -0.2280    1.9370 H         1 CLM1        0.0000
      4 H1         -0.2910   -0.9910   -0.7590 H         1 CLM1        0.0000
      5 C2          1.4600    0.0520    0.0120 C.3       1 CLM1        0.0000
      6 H2          1.8180   -0.3370   -0.9700 H         1 CLM1        0.0000
      7 H2'         1.9560   -0.6050    0.7630 H         1 CLM1        0.0000
      8 C3          2.0030    1.4580    0.1890 C.2       1 CLM1        0.0000
      9 C15         0.9670    2.5740    0.3740 C.3       1 CLM1        0.0000
     10 C16        -0.2620    2.2750   -0.5120 C.3       1 CLM1        0.0000
     11 H16         0.0680    2.2150   -1.5750 H         1 CLM1        0.0000
     12 H16'       -0.9740    3.1270   -0.4340 H         1 CLM1        0.0000
     13 C17        -0.9980    0.9740   -0.1590 C.3       1 CLM1        0.0000
     14 H17        -1.6090    1.1500    0.7560 H         1 CLM1        0.0000
     15 H17'       -1.7220    0.7440   -0.9710 H         1 CLM1        0.0000
     16 CC15        0.5660    2.6580    1.8640 C.3       1 CLM1        0.0000
     17 H151        1.4520    2.8670    2.4990 H         1 CLM1        0.0000
     18 H152        0.1020    1.7180    2.2190 H         1 CLM1        0.0000
     19 H153       -0.1660    3.4790    2.0090 H         1 CLM1        0.0000
     20 C4          3.3000    1.7120   -0.0820 C.2       1 CLM1        0.0000
     21 H4          3.9700    0.8690   -0.3090 H         1 CLM1        0.0000
     22 C5          3.9370    3.0800   -0.1030 C.3       1 CLM1        0.0000
     23 H5          4.2180    3.3330   -1.1500 H         1 CLM1        0.0000
     24 H5'         4.8720    3.0940    0.5010 H         1 CLM1        0.0000
     25 C6          2.9910    4.1710    0.4260 C.3       1 CLM1        0.0000
     26 H6          3.3590    5.1710    0.1060 H         1 CLM1        0.0000
     27 H6'         2.9920    4.1570    1.5380 H         1 CLM1        0.0000
     28 C14         1.5590    3.9430   -0.0760 C.3       1 CLM1        0.0000
     29 H14         0.8940    4.7610    0.2720 H         1 CLM1        0.0000
     30 H14'        1.5760    3.9750   -1.1890 H         1 CLM1        0.0000
@<TRIPOS>BOND
     1   11   10 1 
     2   30   28 1 
     3   23   22 1 
     4   15   13 1 
     5    6    5 1 
     6    4    1 1 
     7   10   12 1 
     8   10   13 1 
     9   10    9 1 
    10   21   20 1 
    11   13    1 1 
    12   13   14 1 
    13   22   20 1 
    14   22   25 1 
    15   22   24 1 
    16   20    8 2 
    17   28   29 1 
    18   28    9 1 
    19   28   25 1 
    20    5    1 1 
    21    5    8 1 
    22    5    7 1 
    23    1    2 1 
    24   26   25 1 
    25    8    9 1 
    26    9   16 1 
    27   25   27 1 
    28    2    3 1 
    29   16   19 1 
    30   16   18 1 
    31   16   17 1 
