@<TRIPOS>MOLECULE
C:\Users\Praveer\PycharmProjects\pdb_to_mol2_converter\data\pdb\clns.pdb
   53    56     0     0     0
SMALL
GASTEIGER

@<TRIPOS>ATOM
      1 C1          1.4250   -0.0450   -0.0090 C.3       1 CLN1        0.0000
      2 O1          0.0080   -0.0460   -0.0240 O.3       1 CLN1        0.0000
      3 HO1        -0.2390    0.4200   -0.8250 H         1 CLN1        0.0000
      4 H1          1.7690   -0.5990    0.8970 H         1 CLN1        0.0000
      5 C2          1.9360    1.4050    0.0530 C.3       1 CLN1        0.0000
      6 H2          1.5690    1.8490    1.0070 H         1 CLN1        0.0000
      7 H2'         1.4570    1.9920   -0.7580 H         1 CLN1        0.0000
      8 C3          3.4460    1.4980   -0.0660 C.2       1 CLN1        0.0000
      9 C4          4.1870    2.0960    0.8830 C.2       1 CLN1        0.0000
     10 H4          3.6920    2.5510    1.7530 H         1 CLN1        0.0000
     11 C5          5.6790    2.2490    0.8000 C.3       1 CLN1        0.0000
     12 H5          6.1580    1.5420    1.5120 H         1 CLN1        0.0000
     13 H5'         5.9830    3.2760    1.0960 H         1 CLN1        0.0000
     14 C6          6.2020    1.9700   -0.6360 C.3       1 CLN1        0.0000
     15 H6          5.9740    2.8260   -1.2980 H         1 CLN1        0.0000
     16 C7          7.7220    1.7430   -0.4770 C.3       1 CLN1        0.0000
     17 H7          7.8720    0.8870    0.2210 H         1 CLN1        0.0000
     18 C8          8.5670    2.9220    0.0180 C.3       1 CLN1        0.0000
     19 H8          8.5380    3.0030    1.1130 H         1 CLN1        0.0000
     20 H8'         8.1920    3.8700   -0.3910 H         1 CLN1        0.0000
     21 C9          9.9900    2.6070   -0.5150 C.3       1 CLN1        0.0000
     22 H9         10.7220    2.5210    0.3000 H         1 CLN1        0.0000
     23 H9'        10.3590    3.4150   -1.1610 H         1 CLN1        0.0000
     24 C10         9.8600    1.2750   -1.2820 C.3       1 CLN1        0.0000
     25 H10         9.9140    0.4270   -0.5800 H         1 CLN1        0.0000
     26 C11         8.4050    1.3950   -1.8060 C.3       1 CLN1        0.0000
     27 CC11        8.2600    2.4820   -2.9080 C.3       1 CLN1        0.0000
     28 H111        8.9210    3.3530   -2.7420 H         1 CLN1        0.0000
     29 H112        7.2210    2.8570   -2.9730 H         1 CLN1        0.0000
     30 H113        8.5180    2.0480   -3.8960 H         1 CLN1        0.0000
     31 C12         7.8470    0.0750   -2.3350 C.3       1 CLN1        0.0000
     32 H12         8.0740   -0.7340   -1.6070 H         1 CLN1        0.0000
     33 H12'        8.3160   -0.1900   -3.3050 H         1 CLN1        0.0000
     34 C13         6.3180    0.1960   -2.4820 C.3       1 CLN1        0.0000
     35 H13         5.9200   -0.7950   -2.7880 H         1 CLN1        0.0000
     36 H13'        6.1040    0.9080   -3.3050 H         1 CLN1        0.0000
     37 C14         5.6070    0.6620   -1.1740 C.3       1 CLN1        0.0000
     38 H14         5.8300   -0.1180   -0.4070 H         1 CLN1        0.0000
     39 C15         4.0610    0.7690   -1.2840 C.3       1 CLN1        0.0000
     40 CC15        3.6410    1.5560   -2.5530 C.3       1 CLN1        0.0000
     41 H151        4.1210    2.5560   -2.5720 H         1 CLN1        0.0000
     42 H152        2.5440    1.6950   -2.6140 H         1 CLN1        0.0000
     43 H153        3.9450    1.0040   -3.4660 H         1 CLN1        0.0000
     44 C16         3.4770   -0.6760   -1.3450 C.3       1 CLN1        0.0000
     45 H16         3.8970   -1.2630   -0.4960 H         1 CLN1        0.0000
     46 H16'        3.8080   -1.1660   -2.2850 H         1 CLN1        0.0000
     47 C17         1.9420   -0.7590   -1.2630 C.3       1 CLN1        0.0000
     48 H17         1.4930   -0.3040   -2.1710 H         1 CLN1        0.0000
     49 H17'        1.6310   -1.8260   -1.2310 H         1 CLN1        0.0000
     50 C18        10.8930    1.0690   -2.3970 C.3       1 CLN1        0.0000
     51 H181       11.9130    0.9990   -1.9600 H         1 CLN1        0.0000
     52 H182       10.8880    1.9170   -3.1130 H         1 CLN1        0.0000
     53 H183       10.6900    0.1320   -2.9570 H         1 CLN1        0.0000
@<TRIPOS>BOND
     1   30   27 1 
     2   43   40 1 
     3   36   34 1 
     4   33   31 1 
     5   52   50 1 
     6   29   27 1 
     7   53   50 1 
     8   27   28 1 
     9   27   26 1 
    10   35   34 1 
    11   42   40 1 
    12   41   40 1 
    13   40   39 1 
    14   34   31 1 
    15   34   37 1 
    16   50   51 1 
    17   50   24 1 
    18   31   26 1 
    19   31   32 1 
    20   46   44 1 
    21   48   47 1 
    22   26   24 1 
    23   26   16 1 
    24   44   39 1 
    25   44   47 1 
    26   44   45 1 
    27   15   14 1 
    28   39   37 1 
    29   39    8 1 
    30   24   25 1 
    31   24   21 1 
    32   47   49 1 
    33   47    1 1 
    34   37   14 1 
    35   37   38 1 
    36   23   21 1 
    37    3    2 1 
    38    7    5 1 
    39   14   16 1 
    40   14   11 1 
    41   21   18 1 
    42   21   22 1 
    43   16   18 1 
    44   16   17 1 
    45   20   18 1 
    46    8    5 1 
    47    8    9 2 
    48    2    1 1 
    49    1    5 1 
    50    1    4 1 
    51   18   19 1 
    52    5    6 1 
    53   11    9 1 
    54   11   13 1 
    55   11   12 1 
    56    9   10 1 
