@<TRIPOS>MOLECULE
C:\Users\Praveer\PycharmProjects\pdb_to_mol2_converter\data\pdb\clol.pdb
   74    77     0     0     0
SMALL
GASTEIGER

@<TRIPOS>ATOM
      1 C3          2.0630    1.4170   -0.0280 C.3       1 CLO1        0.0000
      2 O3          3.4770    1.3840    0.0760 O.3       1 CLO1        0.0000
      3 H3'         3.6610    0.9500    0.9110 H         1 CLO1        0.0000
      4 H3          1.7950    1.8900   -1.0020 H         1 CLO1        0.0000
      5 C4          1.4860    2.2550    1.1270 C.3       1 CLO1        0.0000
      6 H4A         1.8780    3.2920    1.0160 H         1 CLO1        0.0000
      7 H4B         1.8930    1.8810    2.0890 H         1 CLO1        0.0000
      8 C5         -0.0310    2.2280    1.1610 C.2       1 CLO1        0.0000
      9 C6         -0.7510    3.3600    1.1030 C.2       1 CLO1        0.0000
     10 H6         -0.2360    4.3330    1.0830 H         1 CLO1        0.0000
     11 C7         -2.2510    3.3950    1.1700 C.3       1 CLO1        0.0000
     12 H7A        -2.6590    3.6150    0.1600 H         1 CLO1        0.0000
     13 H7B        -2.5870    4.2050    1.8520 H         1 CLO1        0.0000
     14 C8         -2.8240    2.0440    1.6760 C.3       1 CLO1        0.0000
     15 H8         -2.6590    1.9470    2.7660 H         1 CLO1        0.0000
     16 C14        -4.3290    2.0800    1.3230 C.3       1 CLO1        0.0000
     17 H14        -4.4310    2.1860    0.2180 H         1 CLO1        0.0000
     18 C15        -5.1370    3.1860    1.9920 C.3       1 CLO1        0.0000
     19 H15A       -5.0420    4.1390    1.4520 H         1 CLO1        0.0000
     20 H15B       -4.7850    3.3580    3.0210 H         1 CLO1        0.0000
     21 C16        -6.5790    2.6400    1.9810 C.3       1 CLO1        0.0000
     22 H16A       -7.2480    3.3020    1.4130 H         1 CLO1        0.0000
     23 H16B       -6.9880    2.6080    3.0000 H         1 CLO1        0.0000
     24 C17        -6.5380    1.2220    1.3440 C.3       1 CLO1        0.0000
     25 H17        -6.5860    1.2900    0.2480 H         1 CLO1        0.0000
     26 C13        -5.0780    0.8040    1.7490 C.3       1 CLO1        0.0000
     27 C18        -4.9820    0.4870    3.2660 C.3       1 CLO1        0.0000
     28 H18A       -5.5750    1.1880    3.8830 H         1 CLO1        0.0000
     29 H18B       -3.9370    0.5220    3.6250 H         1 CLO1        0.0000
     30 H18C       -5.3660   -0.5370    3.4540 H         1 CLO1        0.0000
     31 C12        -4.4770   -0.3670    0.9570 C.3       1 CLO1        0.0000
     32 H12A       -4.6700   -0.2090   -0.1260 H         1 CLO1        0.0000
     33 H12B       -4.9180   -1.3370    1.2500 H         1 CLO1        0.0000
     34 C11        -2.9540   -0.4520    1.1910 C.3       1 CLO1        0.0000
     35 H11A       -2.5450   -1.2550    0.5420 H         1 CLO1        0.0000
     36 H11B       -2.7940   -0.7630    2.2430 H         1 CLO1        0.0000
     37 C9         -2.2010    0.8790    0.9060 C.3       1 CLO1        0.0000
     38 H9         -2.3530    1.1010   -0.1780 H         1 CLO1        0.0000
     39 C10        -0.6680    0.8180    1.1550 C.3       1 CLO1        0.0000
     40 C19        -0.3460    0.1620    2.5230 C.3       1 CLO1        0.0000
     41 H19A       -0.8730    0.6890    3.3460 H         1 CLO1        0.0000
     42 H19B        0.7390    0.1680    2.7460 H         1 CLO1        0.0000
     43 H19C       -0.6650   -0.9000    2.5250 H         1 CLO1        0.0000
     44 C1         -0.0190   -0.0160    0.0090 C.3       1 CLO1        0.0000
     45 H1A        -0.3630    0.3960   -0.9660 H         1 CLO1        0.0000
     46 H1B        -0.3760   -1.0660    0.0740 H         1 CLO1        0.0000
     47 C2          1.5210   -0.0160    0.0050 C.3       1 CLO1        0.0000
     48 H2A         1.8980   -0.5450    0.9050 H         1 CLO1        0.0000
     49 H2B         1.8890   -0.5680   -0.8870 H         1 CLO1        0.0000
     50 C20        -7.7230    0.3360    1.8550 C.3       1 CLO1        0.0000
     51 H20        -7.7130    0.3330    2.9680 H         1 CLO1        0.0000
     52 C21        -7.6080   -1.1190    1.3590 C.3       1 CLO1        0.0000
     53 H21A       -6.7940   -1.6480    1.8900 H         1 CLO1        0.0000
     54 H21B       -7.4210   -1.1450    0.2650 H         1 CLO1        0.0000
     55 H21C       -8.5340   -1.6890    1.5700 H         1 CLO1        0.0000
     56 C22        -9.0720    0.9630    1.4070 C.3       1 CLO1        0.0000
     57 H22A       -9.1480    0.9040    0.3000 H         1 CLO1        0.0000
     58 H22B       -9.0960    2.0380    1.6860 H         1 CLO1        0.0000
     59 C23       -10.3190    0.3170    2.0400 C.3       1 CLO1        0.0000
     60 H23A      -10.2130    0.3270    3.1470 H         1 CLO1        0.0000
     61 H23B      -10.3950   -0.7420    1.7150 H         1 CLO1        0.0000
     62 C24       -11.6200    1.0430    1.6540 C.3       1 CLO1        0.0000
     63 H24A      -11.7310    1.0370    0.5470 H         1 CLO1        0.0000
     64 H24B      -11.5310    2.1060    1.9750 H         1 CLO1        0.0000
     65 C25       -12.8930    0.4450    2.2910 C.3       1 CLO1        0.0000
     66 H25       -12.7180    0.3660    3.3910 H         1 CLO1        0.0000
     67 C26       -14.0980    1.3750    2.0760 C.3       1 CLO1        0.0000
     68 H26A      -14.3070    1.4910    0.9920 H         1 CLO1        0.0000
     69 H26B      -13.8950    2.3780    2.5070 H         1 CLO1        0.0000
     70 H26C      -15.0020    0.9570    2.5670 H         1 CLO1        0.0000
     71 C27       -13.2130   -0.9620    1.7570 C.3       1 CLO1        0.0000
     72 H27A      -12.3930   -1.6710    1.9890 H         1 CLO1        0.0000
     73 H27B      -13.3550   -0.9320    0.6560 H         1 CLO1        0.0000
     74 H27C      -14.1460   -1.3460    2.2210 H         1 CLO1        0.0000
@<TRIPOS>BOND
     1    4    1 1 
     2   45   44 1 
     3   49   47 1 
     4   38   37 1 
     5   32   31 1 
     6    1   47 1 
     7    1    2 1 
     8    1    5 1 
     9   47   44 1 
    10   47   48 1 
    11   44   46 1 
    12   44   39 1 
    13    2    3 1 
    14   12   11 1 
    15   17   16 1 
    16   25   24 1 
    17   54   52 1 
    18   57   56 1 
    19   35   34 1 
    20   63   62 1 
    21   73   71 1 
    22   37   39 1 
    23   37   34 1 
    24   37   14 1 
    25   31   34 1 
    26   31   33 1 
    27   31   26 1 
    28   68   67 1 
    29    6    5 1 
    30   10    9 1 
    31    9    8 2 
    32    9   11 1 
    33    5    8 1 
    34    5    7 1 
    35   39    8 1 
    36   39   40 1 
    37   11   14 1 
    38   11   13 1 
    39   34   36 1 
    40   16   14 1 
    41   16   26 1 
    42   16   18 1 
    43   24   26 1 
    44   24   50 1 
    45   24   21 1 
    46   52   55 1 
    47   52   50 1 
    48   52   53 1 
    49   56   58 1 
    50   56   50 1 
    51   56   59 1 
    52   22   21 1 
    53   19   18 1 
    54   62   64 1 
    55   62   59 1 
    56   62   65 1 
    57   14   15 1 
    58   61   59 1 
    59   26   27 1 
    60   71   72 1 
    61   71   74 1 
    62   71   65 1 
    63   50   51 1 
    64   21   18 1 
    65   21   23 1 
    66   18   20 1 
    67   59   60 1 
    68   67   65 1 
    69   67   69 1 
    70   67   70 1 
    71   65   66 1 
    72   40   43 1 
    73   40   42 1 
    74   40   41 1 
    75   27   30 1 
    76   27   29 1 
    77   27   28 1 
