@<TRIPOS>MOLECULE
C:\Users\Praveer\PycharmProjects\pdb_to_mol2_converter\data\pdb\cmbz.pdb
   22    22     0     0     0
SMALL
GASTEIGER

@<TRIPOS>ATOM
      1 C1          1.4030    0.0030   -0.0000 C.ar      1 CMB1        0.0000
      2 H1          1.9420   -0.9330   -0.0020 H         1 CMB1        0.0000
      3 C2          2.1020    1.2150    0.0040 C.ar      1 CMB1        0.0000
      4 H2          3.1830    1.2150    0.0040 H         1 CMB1        0.0000
      5 C3          1.4010    2.4260    0.0060 C.ar      1 CMB1        0.0000
      6 H3          1.9390    3.3630    0.0040 H         1 CMB1        0.0000
      7 C4          0.0010    2.4250    0.0050 C.ar      1 CMB1        0.0000
      8 H4         -0.5290    3.3670   -0.0050 H         1 CMB1        0.0000
      9 C5         -0.7200    1.2140   -0.0020 C.ar      1 CMB1        0.0000
     10 C6          0.0020    0.0020   -0.0040 C.ar      1 CMB1        0.0000
     11 H6         -0.5260   -0.9410   -0.0060 H         1 CMB1        0.0000
     12 C7         -2.2450    1.2630    0.0010 C.3       1 CMB1        0.0000
     13 H7         -2.5640    1.9670    0.7990 H         1 CMB1        0.0000
     14 O7         -2.8860    0.0010    0.3170 O.3       1 CMB1        0.0000
     15 H7O        -3.8130    0.0810    0.0560 H         1 CMB1        0.0000
     16 O8         -2.1670    2.5560   -2.1380 O.2       1 CMB1        0.0000
     17 C8         -2.7920    1.8670   -1.3500 C.2       1 CMB1        0.0000
     18 O9         -4.1020    1.5660   -1.4950 O.3       1 CMB1        0.0000
     19 C9         -4.6540    2.1150   -2.7040 C.3       1 CMB1        0.0000
     20 H91        -4.1140    1.7270   -3.5980 H         1 CMB1        0.0000
     21 H92        -4.5890    3.2270   -2.7010 H         1 CMB1        0.0000
     22 H93        -5.7250    1.8300   -2.7950 H         1 CMB1        0.0000
@<TRIPOS>BOND
     1   20   19 1 
     2   22   19 1 
     3   19   21 1 
     4   19   18 1 
     5   16   17 2 
     6   18   17 1 
     7   17   12 1 
     8   11   10 1 
     9    8    7 1 
    10   10    9 ar
    11   10    1 ar
    12    2    1 1 
    13    9   12 1 
    14    9    7 ar
    15    1    3 ar
    16   12   14 1 
    17   12   13 1 
    18    3    4 1 
    19    3    5 ar
    20    6    5 1 
    21    7    5 ar
    22   15   14 1 
