@<TRIPOS>MOLECULE
C:\Users\Praveer\PycharmProjects\pdb_to_mol2_converter\data\pdb\cnad.pdb
   29    32     0     0     0
SMALL
GASTEIGER

@<TRIPOS>ATOM
      1 C4S         0.6920    2.3300   -0.2760 C.3       1 CNA1        0.0000
      2 H41S        0.7660    2.5870   -1.3450 H         1 CNA1        0.0000
      3 H42S        0.5820    3.2780    0.2710 H         1 CNA1        0.0000
      4 C2S         1.5620    0.0330    0.1480 C.3       1 CNA1        0.0000
      5 H21S        1.9180   -0.4670    1.0640 H         1 CNA1        0.0000
      6 C3S         1.9270    1.5340    0.1810 C.3       1 CNA1        0.0000
      7 H31S        2.1790    1.8180    1.2170 H         1 CNA1        0.0000
      8 H32S        2.8200    1.7790   -0.4090 H         1 CNA1        0.0000
      9 C5S        -0.4920    1.4130   -0.0550 C.3       1 CNA1        0.0000
     10 H51S       -1.4120    1.5180   -0.6500 H         1 CNA1        0.0000
     11 C6S        -0.6160    0.7550    1.3080 C.3       1 CNA1        0.0000
     12 H61S       -1.6140    0.4050    1.5270 H         1 CNA1        0.0000
     13 H62S        0.0880    1.1080    2.0460 H         1 CNA1        0.0000
     14 C1S         0.0290    0.0210    0.1260 C.3       1 CNA1        0.0000
     15 H11S       -0.5510   -0.8180   -0.2820 H         1 CNA1        0.0000
     16 C5          3.0130   -2.0890   -2.4570 C.ar      1 CNA1        0.0000
     17 N7          2.3420   -1.1510   -3.2490 N.ar      1 CNA1        0.0000
     18 C8          1.7860   -0.3370   -2.3600 C.ar      1 CNA1        0.0000
     19 H8          1.1720    0.5320   -2.6070 H         1 CNA1        0.0000
     20 N9          2.0510   -0.6770   -1.0510 N.ar      1 CNA1        0.0000
     21 N1          4.3270   -3.9460   -1.7520 N.2       1 CNA1        0.0000
     22 C2          4.0950   -3.5790   -0.4610 C.2       1 CNA1        0.0000
     23 H2          4.5420   -4.1930    0.3260 H         1 CNA1        0.0000
     24 N3          3.3500   -2.5110   -0.0740 N.pl3     1 CNA1        0.0000
     25 C4          2.8390   -1.8060   -1.0970 C.ar      1 CNA1        0.0000
     26 C6          3.7950   -3.2190   -2.7710 C.3       1 CNA1        0.0000
     27 N6          4.0570   -3.6430   -4.0220 N.3       1 CNA1        0.0000
     28 H61         3.7000   -3.1650   -4.8200 H         1 CNA1        0.0000
     29 H62         4.6190   -4.4590   -4.1180 H         1 CNA1        0.0000
@<TRIPOS>BOND
     1   28   27 1 
     2   29   27 1 
     3   27   26 1 
     4   17   16 ar
     5   17   18 ar
     6   26   16 1 
     7   26   21 1 
     8   19   18 1 
     9   16   25 ar
    10   18   20 ar
    11   21   22 2 
    12    2    1 1 
    13   25   20 ar
    14   25   24 1 
    15   20    4 1 
    16   10    9 1 
    17   22   24 1 
    18   22   23 1 
    19    8    6 1 
    20   15   14 1 
    21    1    9 1 
    22    1    6 1 
    23    1    3 1 
    24    9   14 1 
    25    9   11 1 
    26   14    4 1 
    27   14   11 1 
    28    4    6 1 
    29    4    5 1 
    30    6    7 1 
    31   11   12 1 
    32   11   13 1 
