@<TRIPOS>MOLECULE
C:\Users\Praveer\PycharmProjects\pdb_to_mol2_converter\data\pdb\cncy.pdb
   27    29     0     0     0
SMALL
GASTEIGER

@<TRIPOS>ATOM
      1 C4S         0.6890    2.2770   -0.2710 C.3       1 CNC1        0.0000
      2 H41S        0.7170    2.4750   -1.3540 H         1 CNC1        0.0000
      3 H42S        0.6440    3.2540    0.2280 H         1 CNC1        0.0000
      4 C2S         1.5090   -0.0340    0.1220 C.3       1 CNC1        0.0000
      5 H21S        1.8910   -0.5530    1.0170 H         1 CNC1        0.0000
      6 C3S         1.9170    1.4510    0.1510 C.3       1 CNC1        0.0000
      7 H31S        2.2100    1.7230    1.1780 H         1 CNC1        0.0000
      8 H32S        2.8020    1.6690   -0.4630 H         1 CNC1        0.0000
      9 C5S        -0.5100    1.4120    0.0480 C.3       1 CNC1        0.0000
     10 H51S       -1.4700    1.5570   -0.4690 H         1 CNC1        0.0000
     11 C6S        -0.5560    0.7670    1.4220 C.3       1 CNC1        0.0000
     12 H61S       -1.5440    0.4470    1.7170 H         1 CNC1        0.0000
     13 H62S        0.2110    1.0970    2.1060 H         1 CNC1        0.0000
     14 C1S        -0.0260    0.0050    0.1960 C.3       1 CNC1        0.0000
     15 H11S       -0.6610   -0.8270   -0.1340 H         1 CNC1        0.0000
     16 N1          1.9600   -0.7500   -1.1030 N.ar      1 CNC1        0.0000
     17 C6          1.1850   -0.7680   -2.2330 C.ar      1 CNC1        0.0000
     18 H6          0.1950   -0.3140   -2.1720 H         1 CNC1        0.0000
     19 C2          3.2990   -1.2300   -1.1890 C.ar      1 CNC1        0.0000
     20 O2          4.0570   -1.0560   -0.2350 O.2       1 CNC1        0.0000
     21 N3          3.7080   -1.8780   -2.3120 N.ar      1 CNC1        0.0000
     22 C4          2.9050   -1.9760   -3.3780 C.ar      1 CNC1        0.0000
     23 N4          3.3400   -2.6380   -4.4520 N.pl3     1 CNC1        0.0000
     24 H41         4.2550   -3.0250   -4.3830 H         1 CNC1        0.0000
     25 H42         2.7950   -2.7680   -5.2720 H         1 CNC1        0.0000
     26 C5          1.6030   -1.3930   -3.3750 C.ar      1 CNC1        0.0000
     27 H5          0.9540   -1.4470   -4.2470 H         1 CNC1        0.0000
@<TRIPOS>BOND
     1   25   23 1 
     2   23   24 1 
     3   23   22 1 
     4   27   26 1 
     5   22   26 ar
     6   22   21 ar
     7   26   17 ar
     8   21   19 ar
     9   17   18 1 
    10   17   16 ar
    11    2    1 1 
    12   19   16 ar
    13   19   20 2 
    14   16    4 1 
    15   10    9 1 
    16    8    6 1 
    17    1    9 1 
    18    1    6 1 
    19    1    3 1 
    20   15   14 1 
    21    9   14 1 
    22    9   11 1 
    23    4    6 1 
    24    4   14 1 
    25    4    5 1 
    26    6    7 1 
    27   14   11 1 
    28   11   12 1 
    29   11   13 1 
