@<TRIPOS>MOLECULE
C:\Users\Praveer\PycharmProjects\pdb_to_mol2_converter\data\pdb\cngu.pdb
   30    33     0     0     0
SMALL
GASTEIGER

@<TRIPOS>ATOM
      1 C4S         0.6840    2.3390   -0.2610 C.3       1 CNG1        0.0000
      2 H41S        0.7490    2.6020   -1.3290 H         1 CNG1        0.0000
      3 H42S        0.5750    3.2840    0.2920 H         1 CNG1        0.0000
      4 C2S         1.5590    0.0410    0.1610 C.3       1 CNG1        0.0000
      5 H21S        1.9110   -0.4520    1.0820 H         1 CNG1        0.0000
      6 C3S         1.9240    1.5420    0.1830 C.3       1 CNG1        0.0000
      7 H31S        2.1940    1.8260    1.2140 H         1 CNG1        0.0000
      8 H32S        2.8080    1.7820   -0.4240 H         1 CNG1        0.0000
      9 C5S        -0.4970    1.4210   -0.0410 C.3       1 CNG1        0.0000
     10 H51S       -1.4170    1.5290   -0.6350 H         1 CNG1        0.0000
     11 C6S        -0.6170    0.7580    1.3180 C.3       1 CNG1        0.0000
     12 H61S       -1.6150    0.4050    1.5350 H         1 CNG1        0.0000
     13 H62S        0.0870    1.1120    2.0560 H         1 CNG1        0.0000
     14 C1S         0.0260    0.0290    0.1330 C.3       1 CNG1        0.0000
     15 H11S       -0.5510   -0.8060   -0.2870 H         1 CNG1        0.0000
     16 N9          2.0550   -0.6860   -1.0250 N.ar      1 CNG1        0.0000
     17 C4          2.8420   -1.8140   -1.0450 C.ar      1 CNG1        0.0000
     18 N3          3.3470   -2.5040   -0.0030 N.ar      1 CNG1        0.0000
     19 C2          4.0840   -3.5670   -0.3310 C.ar      1 CNG1        0.0000
     20 N1          4.3010   -3.9270   -1.6390 N.ar      1 CNG1        0.0000
     21 H1          4.8570   -4.7350   -1.8270 H         1 CNG1        0.0000
     22 N2          4.6440   -4.3220    0.6050 N.pl3     1 CNG1        0.0000
     23 H21         5.1990   -5.1200    0.4060 H         1 CNG1        0.0000
     24 H22         4.4820   -4.0360    1.5440 H         1 CNG1        0.0000
     25 C6          3.8110   -3.2630   -2.7510 C.ar      1 CNG1        0.0000
     26 O6          4.1020   -3.7200   -3.8560 O.2       1 CNG1        0.0000
     27 C5          3.0310   -2.1280   -2.4070 C.ar      1 CNG1        0.0000
     28 N7          2.3680   -1.2050   -3.2030 N.ar      1 CNG1        0.0000
     29 C8          1.8010   -0.3720   -2.3410 C.ar      1 CNG1        0.0000
     30 H8          1.1910    0.4890   -2.6140 H         1 CNG1        0.0000
@<TRIPOS>BOND
     1   26   25 2 
     2   28   27 ar
     3   28   29 ar
     4   25   27 ar
     5   25   20 ar
     6   30   29 1 
     7   27   17 ar
     8   29   16 ar
     9   21   20 1 
    10   20   19 ar
    11    2    1 1 
    12   17   16 ar
    13   17   18 ar
    14   16    4 1 
    15   10    9 1 
    16    8    6 1 
    17   19   18 ar
    18   19   22 1 
    19   15   14 1 
    20    1    9 1 
    21    1    6 1 
    22    1    3 1 
    23    9   14 1 
    24    9   11 1 
    25   14    4 1 
    26   14   11 1 
    27    4    6 1 
    28    4    5 1 
    29    6    7 1 
    30   23   22 1 
    31   22   24 1 
    32   11   12 1 
    33   11   13 1 
