@<TRIPOS>MOLECULE
C:\Users\Praveer\PycharmProjects\pdb_to_mol2_converter\data\pdb\cnt1.pdb
   29    31     0     0     0
SMALL
GASTEIGER

@<TRIPOS>ATOM
      1 C4S         0.6960    2.2830   -0.2700 C.3       1 CNT1        0.0000
      2 H41S        0.7160    2.5170   -1.3470 H         1 CNT1        0.0000
      3 H42S        0.6490    3.2440    0.2620 H         1 CNT1        0.0000
      4 C2S         1.5220   -0.0350    0.1110 C.3       1 CNT1        0.0000
      5 H21S        1.8900   -0.5360    1.0240 H         1 CNT1        0.0000
      6 C3S         1.9320    1.4520    0.1230 C.3       1 CNT1        0.0000
      7 H31S        2.2580    1.7280    1.1390 H         1 CNT1        0.0000
      8 H32S        2.7950    1.6610   -0.5250 H         1 CNT1        0.0000
      9 C5S        -0.5010    1.4070    0.0320 C.3       1 CNT1        0.0000
     10 H51S       -1.4540    1.5480   -0.4970 H         1 CNT1        0.0000
     11 C6S        -0.5470    0.7480    1.3980 C.3       1 CNT1        0.0000
     12 H61S       -1.5360    0.4230    1.6890 H         1 CNT1        0.0000
     13 H62S        0.2210    1.0620    2.0880 H         1 CNT1        0.0000
     14 C1S        -0.0130   -0.0010    0.1660 C.3       1 CNT1        0.0000
     15 H11S       -0.6410   -0.8420   -0.1520 H         1 CNT1        0.0000
     16 N1          1.9930   -0.7660   -1.0930 N.ar      1 CNT1        0.0000
     17 C6          1.2150   -0.8700   -2.2230 C.ar      1 CNT1        0.0000
     18 H6          0.2060   -0.4600   -2.1710 H         1 CNT1        0.0000
     19 C2          3.3300   -1.2000   -1.1380 C.ar      1 CNT1        0.0000
     20 O2          4.1210   -1.0260   -0.2120 O.2       1 CNT1        0.0000
     21 N3          3.7350   -1.8370   -2.2780 N.ar      1 CNT1        0.0000
     22 H3          4.6780   -2.1680   -2.3020 H         1 CNT1        0.0000
     23 C4          2.9740   -2.0390   -3.4020 C.ar      1 CNT1        0.0000
     24 O4          3.4870   -2.6330   -4.3500 O.2       1 CNT1        0.0000
     25 C5          1.6300   -1.5220   -3.3620 C.ar      1 CNT1        0.0000
     26 C5M         0.7670   -1.7010   -4.5710 C.3       1 CNT1        0.0000
     27 H51        -0.2480   -1.2730   -4.4240 H         1 CNT1        0.0000
     28 H52         0.6510   -2.7830   -4.8110 H         1 CNT1        0.0000
     29 H53         1.2230   -1.2070   -5.4590 H         1 CNT1        0.0000
@<TRIPOS>BOND
     1   29   26 1 
     2   28   26 1 
     3   26   27 1 
     4   26   25 1 
     5   24   23 2 
     6   23   25 ar
     7   23   21 ar
     8   25   17 ar
     9   22   21 1 
    10   21   19 ar
    11   17   18 1 
    12   17   16 ar
    13    2    1 1 
    14   19   16 ar
    15   19   20 2 
    16   16    4 1 
    17    8    6 1 
    18   10    9 1 
    19    1    9 1 
    20    1    6 1 
    21    1    3 1 
    22   15   14 1 
    23    9   14 1 
    24    9   11 1 
    25    4    6 1 
    26    4   14 1 
    27    4    5 1 
    28    6    7 1 
    29   14   11 1 
    30   11   12 1 
    31   11   13 1 
