@<TRIPOS>MOLECULE
C:\Users\Praveer\PycharmProjects\pdb_to_mol2_converter\data\pdb\co2.pdb
    3     2     0     0     0
SMALL
GASTEIGER

@<TRIPOS>ATOM
      1 C           0.0000    0.0000    0.0000 C.1       1 CO21        0.0000
      2 OC1         1.1600    0.0000    0.0000 O.2       1 CO21        0.0000
      3 OC2        -1.1600    0.0000    0.0000 O.2       1 CO21        0.0000
@<TRIPOS>BOND
     1    1    2 2 
     2    1    3 2 
