@<TRIPOS>MOLECULE
C:\Users\Praveer\PycharmProjects\pdb_to_mol2_converter\data\pdb\co31.pdb
    5     4     0     0     0
SMALL
GASTEIGER

@<TRIPOS>ATOM
      1 C           1.3430    0.0310   -0.0000 C.2       1 CO31        0.0000
      2 H3          1.3540    1.8850    0.0000 H         1 CO31        0.0000
      3 O1          0.0790    0.1770    0.0000 O.co2     1 CO31        0.0000
      4 O2          1.9440   -1.0910   -0.0000 O.co2     1 CO31        0.0000
      5 O3          2.0470    1.2360   -0.0000 O.3       1 CO31        0.0000
@<TRIPOS>BOND
     1    1    3 ar
     2    1    4 ar
     3    1    5 1 
     4    2    5 1 
