@<TRIPOS>MOLECULE
C:\Users\Praveer\PycharmProjects\pdb_to_mol2_converter\data\pdb\cona.pdb
   19    20     0     0     0
SMALL
GASTEIGER

@<TRIPOS>ATOM
      1 C1          1.1900    0.1310   -0.2250 C.3       1 CON1        0.0000
      2 H11         1.4610    0.2100   -1.3010 H         1 CON1        0.0000
      3 H12         0.1010   -0.0950   -0.1670 H         1 CON1        0.0000
      4 H13         1.7380   -0.7380    0.2050 H         1 CON1        0.0000
      5 N2          1.5020    1.3680    0.5060 N.3       1 CON1        0.0000
      6 H2          1.0300    2.1240    0.0080 H         1 CON1        0.0000
      7 C3          2.9300    1.6140    0.6220 C.3       1 CON1        0.0000
      8 H3          3.3920    0.7220    1.0790 H         1 CON1        0.0000
      9 C4          3.5760    1.9070   -0.7310 C.3       1 CON1        0.0000
     10 H4          3.0540    1.7640   -1.6870 H         1 CON1        0.0000
     11 O4          4.9800    1.5940   -0.7450 O.3       1 CON1        0.0000
     12 C5          4.6090    2.9660   -0.6030 C.3       1 CON1        0.0000
     13 H5          4.8250    3.6180   -1.4640 H         1 CON1        0.0000
     14 C6          4.5660    3.4900    0.8150 C.3       1 CON1        0.0000
     15 H61         4.5680    4.5880    0.8530 H         1 CON1        0.0000
     16 H62         5.4580    3.1410    1.3590 H         1 CON1        0.0000
     17 C7          3.2720    2.8900    1.4140 C.3       1 CON1        0.0000
     18 H71         3.3660    2.6900    2.4890 H         1 CON1        0.0000
     19 H72         2.4500    3.6190    1.3160 H         1 CON1        0.0000
@<TRIPOS>BOND
     1   10    9 1 
     2   13   12 1 
     3    2    1 1 
     4   11    9 1 
     5   11   12 1 
     6    9   12 1 
     7    9    7 1 
     8   12   14 1 
     9    1    3 1 
    10    1    4 1 
    11    1    5 1 
    12    6    5 1 
    13    5    7 1 
    14    7    8 1 
    15    7   17 1 
    16   14   15 1 
    17   14   16 1 
    18   14   17 1 
    19   19   17 1 
    20   17   18 1 
