@<TRIPOS>MOLECULE
C:\Users\Praveer\PycharmProjects\pdb_to_mol2_converter\data\pdb\cpde.pdb
   11    11     0     0     0
SMALL
GASTEIGER

@<TRIPOS>ATOM
      1 C1          0.0250   -0.0650    0.0000 C.3       1 CPD1        0.0000
      2 H11        -0.3800   -0.5880    0.8820 H         1 CPD1        0.0000
      3 H12        -0.3800   -0.5880   -0.8820 H         1 CPD1        0.0000
      4 C2          1.5210   -0.0290   -0.0000 C.2       1 CPD1        0.0000
      5 H2          2.1530   -0.9040    0.0000 H         1 CPD1        0.0000
      6 C3          1.9290    1.2730    0.0000 C.2       1 CPD1        0.0000
      7 H3          2.9610    1.6010   -0.0000 H         1 CPD1        0.0000
      8 C4          0.8450    2.1130    0.0000 C.2       1 CPD1        0.0000
      9 H4          0.9050    3.1940   -0.0000 H         1 CPD1        0.0000
     10 C5         -0.3130    1.3920   -0.0000 C.2       1 CPD1        0.0000
     11 H5         -1.3190    1.7860    0.0000 H         1 CPD1        0.0000
@<TRIPOS>BOND
     1    3    1 1 
     2    1    4 1 
     3    1   10 1 
     4    1    2 1 
     5    4    5 1 
     6    4    6 2 
     7    6    7 1 
     8    6    8 1 
     9    8    9 1 
    10    8   10 2 
    11   10   11 1 
