@<TRIPOS>MOLECULE
C:\Users\Praveer\PycharmProjects\pdb_to_mol2_converter\data\pdb\cpea.pdb
   17    17     0     0     0
SMALL
GASTEIGER

@<TRIPOS>ATOM
      1 N6          1.0330   -0.0120    0.0050 N.4       1 CPE1        0.0000
      2 H61         1.3910   -0.4960    0.8520 H         1 CPE1        0.0000
      3 H62         1.3690   -0.4970   -0.8500 H         1 CPE1        0.0000
      4 H63        -0.0070   -0.0060    0.0150 H         1 CPE1        0.0000
      5 C1          1.5050    1.3940   -0.0020 C.3       1 CPE1        0.0000
      6 H1          2.5890    1.3840   -0.0450 H         1 CPE1        0.0000
      7 C2          0.9050    2.1010    1.2010 C.3       1 CPE1        0.0000
      8 H21         1.5970    2.0760    2.0600 H         1 CPE1        0.0000
      9 H22        -0.0340    1.6440    1.5580 H         1 CPE1        0.0000
     10 C3          0.6240    3.5040    0.7220 C.3       1 CPE1        0.0000
     11 H3         -0.2790    3.9210    1.2060 H         1 CPE1        0.0000
     12 O3          1.7240    4.3380    1.0300 O.3       1 CPE1        0.0000
     13 H3O         1.5040    5.2620    0.8740 H         1 CPE1        0.0000
     14 C4          0.4040    3.3170   -0.7630 C.2       1 CPE1        0.0000
     15 H4         -0.0430    4.0780   -1.3910 H         1 CPE1        0.0000
     16 C5          0.8890    2.0990   -1.1700 C.2       1 CPE1        0.0000
     17 H5          0.9170    1.7530   -2.1960 H         1 CPE1        0.0000
@<TRIPOS>BOND
     1   17   16 1 
     2   15   14 1 
     3   16   14 2 
     4   16    5 1 
     5    3    1 1 
     6   14   10 1 
     7    6    5 1 
     8    5    1 1 
     9    5    7 1 
    10    1    4 1 
    11    1    2 1 
    12   10   12 1 
    13   10    7 1 
    14   10   11 1 
    15   13   12 1 
    16    7    9 1 
    17    7    8 1 
