@<TRIPOS>MOLECULE
C:\Users\Praveer\PycharmProjects\pdb_to_mol2_converter\data\pdb\cpen.pdb
   15    15     0     0     0
SMALL
GASTEIGER

@<TRIPOS>ATOM
      1 C1         -0.0090    0.0660    0.0000 C.3       1 CPE1        0.0000
      2 H11        -0.4210   -0.4560    0.8780 H         1 CPE1        0.0000
      3 H12        -0.4210   -0.4560   -0.8780 H         1 CPE1        0.0000
      4 C2          1.5260    0.0060   -0.0000 C.3       1 CPE1        0.0000
      5 H21         1.8950   -0.5470   -0.8780 H         1 CPE1        0.0000
      6 H22         1.8950   -0.5470    0.8780 H         1 CPE1        0.0000
      7 C3          2.0570    1.4470    0.0000 C.3       1 CPE1        0.0000
      8 H31         2.6970    1.6270   -0.8780 H         1 CPE1        0.0000
      9 H32         2.6970    1.6270    0.8780 H         1 CPE1        0.0000
     10 C4          0.8510    2.3980   -0.0000 C.3       1 CPE1        0.0000
     11 H41         0.8770    3.0620   -0.8780 H         1 CPE1        0.0000
     12 H42         0.8770    3.0620    0.8780 H         1 CPE1        0.0000
     13 C5         -0.4260    1.5450    0.0000 C.3       1 CPE1        0.0000
     14 H51        -1.0500    1.7750    0.8780 H         1 CPE1        0.0000
     15 H52        -1.0500    1.7750   -0.8780 H         1 CPE1        0.0000
@<TRIPOS>BOND
     1    3    1 1 
     2    5    4 1 
     3    8    7 1 
     4   11   10 1 
     5   15   13 1 
     6    1    4 1 
     7    1   13 1 
     8    1    2 1 
     9    4    7 1 
    10    4    6 1 
    11    7   10 1 
    12    7    9 1 
    13   10   13 1 
    14   10   12 1 
    15   13   14 1 
