@<TRIPOS>MOLECULE
C:\Users\Praveer\PycharmProjects\pdb_to_mol2_converter\data\pdb\cpoa.pdb
   17    18     0     0     0
SMALL
GASTEIGER

@<TRIPOS>ATOM
      1 N6          1.0380    0.0380    0.0440 N.4       1 CPO1        0.0000
      2 H61        -0.0000    0.0220    0.0390 H         1 CPO1        0.0000
      3 H62         1.4010   -0.4420    0.8910 H         1 CPO1        0.0000
      4 H63         1.4020   -0.4470   -0.8030 H         1 CPO1        0.0000
      5 C1          1.5370    1.4370   -0.0050 C.3       1 CPO1        0.0000
      6 H1          1.3260    1.9090    0.9510 H         1 CPO1        0.0000
      7 C2          0.9740    2.1510   -1.2650 C.3       1 CPO1        0.0000
      8 H21         0.0350    2.6820   -1.0540 H         1 CPO1        0.0000
      9 H22         0.7540    1.4280   -2.0690 H         1 CPO1        0.0000
     10 C3          2.0910    3.0920   -1.7390 C.3       1 CPO1        0.0000
     11 H31         2.0140    4.0930   -1.2830 H         1 CPO1        0.0000
     12 H32         2.0930    3.2320   -2.8320 H         1 CPO1        0.0000
     13 C4          3.3360    2.3950   -1.2560 C.3       1 CPO1        0.0000
     14 H4          4.3230    2.8860   -1.2830 H         1 CPO1        0.0000
     15 O4          3.3600    0.9920   -1.5630 O.3       1 CPO1        0.0000
     16 C5          3.0230    1.3830   -0.2200 C.3       1 CPO1        0.0000
     17 H5          3.7210    1.1280    0.5600 H         1 CPO1        0.0000
@<TRIPOS>BOND
     1   12   10 1 
     2    9    7 1 
     3   10   11 1 
     4   10    7 1 
     5   10   13 1 
     6   15   13 1 
     7   15   16 1 
     8   14   13 1 
     9    7    8 1 
    10    7    5 1 
    11   13   16 1 
    12    4    1 1 
    13   16    5 1 
    14   16   17 1 
    15    5    1 1 
    16    5    6 1 
    17    2    1 1 
    18    1    3 1 
