@<TRIPOS>MOLECULE
C:\Users\Praveer\PycharmProjects\pdb_to_mol2_converter\data\pdb\crbz.pdb
   22    24     0     0     0
SMALL
GASTEIGER

@<TRIPOS>ATOM
      1 C1          2.1040    1.1270    0.0000 C.ar      1 CRB1        0.0000
      2 H1          3.1800    1.0810    0.0000 H         1 CRB1        0.0000
      3 C2          1.4440    2.3690    0.0000 C.ar      1 CRB1        0.0000
      4 H2          2.0150    3.2860    0.0000 H         1 CRB1        0.0000
      5 C3          0.0400    2.4220   -0.0000 C.ar      1 CRB1        0.0000
      6 H3         -0.4550    3.3840   -0.0000 H         1 CRB1        0.0000
      7 C4         -0.7310    1.2490   -0.0000 C.ar      1 CRB1        0.0000
      8 H4         -1.8090    1.2780   -0.0000 H         1 CRB1        0.0000
      9 C5         -0.0620    0.0240   -0.0000 C.ar      1 CRB1        0.0000
     10 C6         -0.5610   -1.3600   -0.0000 C.ar      1 CRB1        0.0000
     11 C7         -1.8580   -1.8760   -0.0000 C.ar      1 CRB1        0.0000
     12 H7         -2.7060   -1.2100   -0.0000 H         1 CRB1        0.0000
     13 C8         -2.0130   -3.2710   -0.0000 C.ar      1 CRB1        0.0000
     14 H8         -3.0070   -3.6970   -0.0000 H         1 CRB1        0.0000
     15 C9         -0.8980   -4.1260   -0.0000 C.ar      1 CRB1        0.0000
     16 H9         -1.0430   -5.1970   -0.0000 H         1 CRB1        0.0000
     17 C10         0.4030   -3.5910   -0.0000 C.ar      1 CRB1        0.0000
     18 H10         1.2610   -4.2420   -0.0000 H         1 CRB1        0.0000
     19 C11         0.5820   -2.2170   -0.0000 C.ar      1 CRB1        0.0000
     20 N12         1.7010   -1.3930   -0.0000 N.ar      1 CRB1        0.0000
     21 H12         2.6450   -1.7330    0.0000 H         1 CRB1        0.0000
     22 C13         1.3650   -0.0450   -0.0000 C.ar      1 CRB1        0.0000
@<TRIPOS>BOND
     1    1    2 1 
     2    1    3 ar
     3    1   22 ar
     4    3    4 1 
     5    3    5 ar
     6    5    6 1 
     7    5    7 ar
     8    7    8 1 
     9    7    9 ar
    10    9   10 ar
    11    9   22 ar
    12   10   11 ar
    13   10   19 ar
    14   11   12 1 
    15   11   13 ar
    16   13   14 1 
    17   13   15 ar
    18   15   16 1 
    19   15   17 ar
    20   17   18 1 
    21   17   19 ar
    22   19   20 ar
    23   20   21 1 
    24   20   22 ar
