@<TRIPOS>MOLECULE
C:\Users\Praveer\PycharmProjects\pdb_to_mol2_converter\data\pdb\crot.pdb
   19    18     0     0     0
SMALL
GASTEIGER

@<TRIPOS>ATOM
      1 C12         0.0970    0.0750    0.0000 C.3       1 CRO1        0.0000
      2 H121       -0.2450    1.1340    0.0010 H         1 CRO1        0.0000
      3 H122       -0.3420   -0.4150    0.8960 H         1 CRO1        0.0000
      4 H123       -0.3420   -0.4150   -0.8950 H         1 CRO1        0.0000
      5 C13         1.5950   -0.0770    0.0000 C.2       1 CRO1        0.0000
      6 C14         2.3730    1.0250   -0.0000 C.2       1 CRO1        0.0000
      7 H141        1.8370    1.9800   -0.0000 H         1 CRO1        0.0000
      8 C15         3.8630    1.1160   -0.0010 C.2       1 CRO1        0.0000
      9 O29         4.6190    0.1500   -0.0010 O.2       1 CRO1        0.0000
     10 N21         4.3580    2.3650   -0.0020 N.am      1 CRO1        0.0000
     11 H211        3.7510    3.1520   -0.0020 H         1 CRO1        0.0000
     12 C16         5.7800    2.6120   -0.0030 C.3       1 CRO1        0.0000
     13 H131        6.2560    2.1650   -0.9050 H         1 CRO1        0.0000
     14 H132        6.2580    2.1660    0.8990 H         1 CRO1        0.0000
     15 H133        5.9860    3.7050   -0.0030 H         1 CRO1        0.0000
     16 C20         2.1510   -1.4750    0.0000 C.3       1 CRO1        0.0000
     17 H201        1.3390   -2.2320    0.0000 H         1 CRO1        0.0000
     18 H202        2.7830   -1.6580    0.8960 H         1 CRO1        0.0000
     19 H203        2.7830   -1.6580   -0.8970 H         1 CRO1        0.0000
@<TRIPOS>BOND
     1   13   12 1 
     2   19   16 1 
     3    4    1 1 
     4   12   15 1 
     5   12   10 1 
     6   12   14 1 
     7   10   11 1 
     8   10    8 am
     9    8    9 2 
    10    8    6 1 
    11    1    5 1 
    12    1    2 1 
    13    1    3 1 
    14    5    6 2 
    15    5   16 1 
    16    6    7 1 
    17   16   17 1 
    18   16   18 1 
