@<TRIPOS>MOLECULE
C:\Users\Praveer\PycharmProjects\pdb_to_mol2_converter\data\pdb\csad.pdb
   29    32     0     0     0
SMALL
GASTEIGER

@<TRIPOS>ATOM
      1 C4S         0.8830    2.3960   -0.0720 C.3       1 CSA1        0.0000
      2 H41S        0.9280    2.8280   -1.0850 H         1 CSA1        0.0000
      3 H42S        0.8570    3.2410    0.6300 H         1 CSA1        0.0000
      4 C2S         1.5940    0.0470   -0.1320 C.3       1 CSA1        0.0000
      5 H21S        2.0370   -0.7040    0.5390 H         1 CSA1        0.0000
      6 H22S        1.8700   -0.2400   -1.1590 H         1 CSA1        0.0000
      7 C3S         2.0900    1.4720    0.1730 C.3       1 CSA1        0.0000
      8 H31S        2.3930    1.5360    1.2310 H         1 CSA1        0.0000
      9 H32S        2.9730    1.7540   -0.4150 H         1 CSA1        0.0000
     10 C5S        -0.3580    1.5220    0.0460 C.3       1 CSA1        0.0000
     11 H51S       -1.2980    1.8100   -0.4460 H         1 CSA1        0.0000
     12 C6S        -0.4990    0.6620    1.3000 C.3       1 CSA1        0.0000
     13 H61S       -1.5140    0.3570    1.5060 H         1 CSA1        0.0000
     14 H62S        0.2520    0.8440    2.0530 H         1 CSA1        0.0000
     15 C1S         0.0700    0.0800    0.0020 C.3       1 CSA1        0.0000
     16 C5         -1.7060   -2.7040   -1.5320 C.ar      1 CSA1        0.0000
     17 N7         -2.0020   -1.6960   -2.4550 N.ar      1 CSA1        0.0000
     18 C8         -1.4050   -0.6260   -1.9460 C.ar      1 CSA1        0.0000
     19 H8         -1.4060    0.3650   -2.4040 H         1 CSA1        0.0000
     20 N9         -0.7450   -0.8700   -0.7630 N.ar      1 CSA1        0.0000
     21 N1         -1.5770   -4.8090   -0.4290 N.2       1 CSA1        0.0000
     22 C2         -0.8380   -4.2150    0.5490 C.2       1 CSA1        0.0000
     23 H2         -0.5020   -4.8440    1.3780 H         1 CSA1        0.0000
     24 N3         -0.4810   -2.9050    0.5720 N.pl3     1 CSA1        0.0000
     25 C4         -0.9360   -2.2000   -0.4770 C.ar      1 CSA1        0.0000
     26 C6         -2.0220   -4.0770   -1.4850 C.3       1 CSA1        0.0000
     27 N6         -2.7320   -4.7290   -2.4260 N.3       1 CSA1        0.0000
     28 H61        -3.0800   -4.2590   -3.2330 H         1 CSA1        0.0000
     29 H62        -2.8820   -5.7040   -2.2930 H         1 CSA1        0.0000
@<TRIPOS>BOND
     1   28   27 1 
     2   17   18 ar
     3   17   16 ar
     4   27   29 1 
     5   27   26 1 
     6   19   18 1 
     7   18   20 ar
     8   16   26 1 
     9   16   25 ar
    10   26   21 1 
    11    6    4 1 
    12    2    1 1 
    13   20   25 ar
    14   20   15 1 
    15   25   24 1 
    16   11   10 1 
    17   21   22 2 
    18    9    7 1 
    19    4   15 1 
    20    4    7 1 
    21    4    5 1 
    22    1   10 1 
    23    1    7 1 
    24    1    3 1 
    25   15   10 1 
    26   15   12 1 
    27   10   12 1 
    28    7    8 1 
    29   22   24 1 
    30   22   23 1 
    31   12   13 1 
    32   12   14 1 
