@<TRIPOS>MOLECULE
C:\Users\Praveer\PycharmProjects\pdb_to_mol2_converter\data\pdb\cscy.pdb
   27    29     0     0     0
SMALL
GASTEIGER

@<TRIPOS>ATOM
      1 C4S         0.9240    2.3960   -0.0180 C.3       1 CSC1        0.0000
      2 H41S        0.9700    2.8300   -1.0300 H         1 CSC1        0.0000
      3 H42S        0.9180    3.2390    0.6890 H         1 CSC1        0.0000
      4 C2S         1.5810    0.0330   -0.1210 C.3       1 CSC1        0.0000
      5 H21S        2.0070   -0.7430    0.5310 H         1 CSC1        0.0000
      6 H22S        1.8450   -0.2420   -1.1540 H         1 CSC1        0.0000
      7 C3S         2.1090    1.4410    0.2130 C.3       1 CSC1        0.0000
      8 H31S        2.4050    1.4780    1.2750 H         1 CSC1        0.0000
      9 H32S        3.0030    1.7140   -0.3630 H         1 CSC1        0.0000
     10 C5S        -0.3350    1.5500    0.1020 C.3       1 CSC1        0.0000
     11 H51S       -1.2680    1.8610   -0.3900 H         1 CSC1        0.0000
     12 C6S        -0.4920    0.6680    1.3340 C.3       1 CSC1        0.0000
     13 H61S       -1.5080    0.3610    1.5320 H         1 CSC1        0.0000
     14 H62S        0.2670    0.8020    2.0890 H         1 CSC1        0.0000
     15 C1S         0.0580    0.0990    0.0190 C.3       1 CSC1        0.0000
     16 N1         -0.7870   -0.7680   -0.8100 N.ar      1 CSC1        0.0000
     17 C6         -0.9070   -0.4010   -2.1200 C.ar      1 CSC1        0.0000
     18 H6         -0.4760    0.5600   -2.4060 H         1 CSC1        0.0000
     19 C2         -1.3010   -2.0170   -0.3810 C.ar      1 CSC1        0.0000
     20 O2         -1.1580   -2.3490    0.7970 O.2       1 CSC1        0.0000
     21 N3         -1.9350   -2.8190   -1.2790 N.ar      1 CSC1        0.0000
     22 C4         -2.0520   -2.4540   -2.5640 C.ar      1 CSC1        0.0000
     23 N4         -2.6580   -3.2800   -3.4180 N.pl3     1 CSC1        0.0000
     24 H41        -2.9900   -4.1370   -3.0340 H         1 CSC1        0.0000
     25 H42        -2.7650   -3.0800   -4.3850 H         1 CSC1        0.0000
     26 C5         -1.5330   -1.2080   -3.0270 C.ar      1 CSC1        0.0000
     27 H5         -1.6250   -0.9060   -4.0690 H         1 CSC1        0.0000
@<TRIPOS>BOND
     1   25   23 1 
     2   27   26 1 
     3   23   24 1 
     4   23   22 1 
     5   26   22 ar
     6   26   17 ar
     7   22   21 ar
     8   18   17 1 
     9   17   16 ar
    10   21   19 ar
    11    6    4 1 
    12    2    1 1 
    13   16   19 ar
    14   16   15 1 
    15   11   10 1 
    16   19   20 2 
    17    9    7 1 
    18    4   15 1 
    19    4    7 1 
    20    4    5 1 
    21    1   10 1 
    22    1    7 1 
    23    1    3 1 
    24   15   10 1 
    25   15   12 1 
    26   10   12 1 
    27    7    8 1 
    28   12   13 1 
    29   12   14 1 
