@<TRIPOS>MOLECULE
C:\Users\Praveer\PycharmProjects\pdb_to_mol2_converter\data\pdb\csgu.pdb
   30    33     0     0     0
SMALL
GASTEIGER

@<TRIPOS>ATOM
      1 C4S         0.8780    2.3880   -0.0670 C.3       1 CSG1        0.0000
      2 H41S        0.9130    2.8120   -1.0840 H         1 CSG1        0.0000
      3 H42S        0.8510    3.2370    0.6310 H         1 CSG1        0.0000
      4 C2S         1.6020    0.0400   -0.1150 C.3       1 CSG1        0.0000
      5 H21S        2.0470   -0.7030    0.5630 H         1 CSG1        0.0000
      6 H22S        1.8760   -0.2660   -1.1370 H         1 CSG1        0.0000
      7 C3S         2.0930    1.4710    0.1730 C.3       1 CSG1        0.0000
      8 H31S        2.4110    1.5460    1.2260 H         1 CSG1        0.0000
      9 H32S        2.9680    1.7520   -0.4300 H         1 CSG1        0.0000
     10 C5S        -0.3590    1.5100    0.0620 C.3       1 CSG1        0.0000
     11 H51S       -1.2970    1.7790   -0.4430 H         1 CSG1        0.0000
     12 C6S        -0.4860    0.6580    1.3210 C.3       1 CSG1        0.0000
     13 H61S       -1.4990    0.3500    1.5350 H         1 CSG1        0.0000
     14 H62S        0.2690    0.8500    2.0670 H         1 CSG1        0.0000
     15 C1S         0.0780    0.0690    0.0220 C.3       1 CSG1        0.0000
     16 N9         -0.7360   -0.8940   -0.7320 N.ar      1 CSG1        0.0000
     17 C4         -0.9210   -2.2230   -0.4340 C.ar      1 CSG1        0.0000
     18 N3         -0.4610   -2.9200    0.6240 N.ar      1 CSG1        0.0000
     19 C2         -0.7920   -4.2150    0.6370 C.ar      1 CSG1        0.0000
     20 N1         -1.5420   -4.7850   -0.3630 N.ar      1 CSG1        0.0000
     21 H1         -1.7550   -5.7590   -0.3050 H         1 CSG1        0.0000
     22 N2         -0.4040   -5.0090    1.6260 N.pl3     1 CSG1        0.0000
     23 H21        -0.6290   -5.9740    1.6730 H         1 CSG1        0.0000
     24 H22         0.1380   -4.5770    2.3400 H         1 CSG1        0.0000
     25 C6         -2.0410   -4.1260   -1.4710 C.ar      1 CSG1        0.0000
     26 O6         -2.6960   -4.7900   -2.2760 O.2       1 CSG1        0.0000
     27 C5         -1.6980   -2.7490   -1.4870 C.ar      1 CSG1        0.0000
     28 N7         -1.9920   -1.7500   -2.4040 N.ar      1 CSG1        0.0000
     29 C8         -1.4020   -0.6700   -1.9140 C.ar      1 CSG1        0.0000
     30 H8         -1.4120    0.3130   -2.3880 H         1 CSG1        0.0000
@<TRIPOS>BOND
     1   28   29 ar
     2   28   27 ar
     3   30   29 1 
     4   26   25 2 
     5   29   16 ar
     6   27   25 ar
     7   27   17 ar
     8   25   20 ar
     9    6    4 1 
    10    2    1 1 
    11   16   17 ar
    12   16   15 1 
    13   11   10 1 
    14   17   18 ar
    15    9    7 1 
    16   20   21 1 
    17   20   19 ar
    18    4   15 1 
    19    4    7 1 
    20    4    5 1 
    21    1   10 1 
    22    1    7 1 
    23    1    3 1 
    24   15   10 1 
    25   15   12 1 
    26   10   12 1 
    27    7    8 1 
    28   18   19 ar
    29   19   22 1 
    30   12   13 1 
    31   12   14 1 
    32   22   23 1 
    33   22   24 1 
