@<TRIPOS>MOLECULE
C:\Users\Praveer\PycharmProjects\pdb_to_mol2_converter\data\pdb\csth.pdb
   29    31     0     0     0
SMALL
GASTEIGER

@<TRIPOS>ATOM
      1 C4S         0.9050    2.3790   -0.0370 C.3       1 CST1        0.0000
      2 H41S        0.9480    2.8050   -1.0520 H         1 CST1        0.0000
      3 H42S        0.9040    3.2250    0.6650 H         1 CST1        0.0000
      4 C2S         1.5670    0.0170   -0.1270 C.3       1 CST1        0.0000
      5 H21S        2.0000   -0.7530    0.5260 H         1 CST1        0.0000
      6 H22S        1.8270   -0.2660   -1.1590 H         1 CST1        0.0000
      7 C3S         2.0940    1.4280    0.1930 C.3       1 CST1        0.0000
      8 H31S        2.4000    1.4720    1.2520 H         1 CST1        0.0000
      9 H32S        2.9830    1.6970   -0.3930 H         1 CST1        0.0000
     10 C5S        -0.3530    1.5310    0.0930 C.3       1 CST1        0.0000
     11 H51S       -1.2900    1.8320   -0.3950 H         1 CST1        0.0000
     12 C6S        -0.5030    0.6580    1.3330 C.3       1 CST1        0.0000
     13 H61S       -1.5210    0.3590    1.5360 H         1 CST1        0.0000
     14 H62S        0.2550    0.8110    2.0850 H         1 CST1        0.0000
     15 C1S         0.0470    0.0810    0.0250 C.3       1 CST1        0.0000
     16 N1         -0.7940   -0.8040   -0.7770 N.ar      1 CST1        0.0000
     17 C6         -0.9250   -0.4620   -2.0930 C.ar      1 CST1        0.0000
     18 H6         -0.5020    0.5000   -2.3870 H         1 CST1        0.0000
     19 C2         -1.2760   -2.0330   -0.3120 C.ar      1 CST1        0.0000
     20 O2         -1.1550   -2.4060    0.8530 O.2       1 CST1        0.0000
     21 N3         -1.8990   -2.8280   -1.2370 N.ar      1 CST1        0.0000
     22 H3         -2.2510   -3.7080   -0.9170 H         1 CST1        0.0000
     23 C4         -2.0660   -2.5400   -2.5720 C.ar      1 CST1        0.0000
     24 O4         -2.6390   -3.3650   -3.2770 O.2       1 CST1        0.0000
     25 C5         -1.5370   -1.2730   -3.0190 C.ar      1 CST1        0.0000
     26 C5M        -1.6840   -0.9000   -4.4600 C.3       1 CST1        0.0000
     27 H51        -1.1970    0.0740   -4.6870 H         1 CST1        0.0000
     28 H52        -2.7590   -0.8190   -4.7380 H         1 CST1        0.0000
     29 H53        -1.2210   -1.6730   -5.1160 H         1 CST1        0.0000
@<TRIPOS>BOND
     1   29   26 1 
     2   28   26 1 
     3   27   26 1 
     4   26   25 1 
     5   24   23 2 
     6   25   23 ar
     7   25   17 ar
     8   23   21 ar
     9   18   17 1 
    10   17   16 ar
    11   21   22 1 
    12   21   19 ar
    13    6    4 1 
    14    2    1 1 
    15   16   19 ar
    16   16   15 1 
    17   11   10 1 
    18    9    7 1 
    19   19   20 2 
    20    4   15 1 
    21    4    7 1 
    22    4    5 1 
    23    1   10 1 
    24    1    7 1 
    25    1    3 1 
    26   15   10 1 
    27   15   12 1 
    28   10   12 1 
    29    7    8 1 
    30   12   13 1 
    31   12   14 1 
