@<TRIPOS>MOLECULE
C:\Users\Praveer\PycharmProjects\pdb_to_mol2_converter\data\pdb\ctlipa.pdb
  308   309     0     0     0
SMALL
GASTEIGER

@<TRIPOS>ATOM
      1 HB6S       -7.9850    1.5100   -0.2270 H         1 CTL1        0.0000
      2 OB6        -6.7750   -0.0570    0.4750 O.3       1 CTL1        0.0000
      3 HOB6       -5.9030   -0.4000    0.2470 H         1 CTL1        0.0000
      4 CB6        -7.0300    0.9890   -0.4720 C.3       1 CTL1        0.0000
      5 HB6R       -7.1590    0.5490   -1.4870 H         1 CTL1        0.0000
      6 CB5        -5.8880    1.9870   -0.4970 C.3       1 CTL1        0.0000
      7 OB5        -4.6510    1.2620   -0.6330 O.3       1 CTL1        0.0000
      8 HB5        -5.8850    2.5180    0.4850 H         1 CTL1        0.0000
      9 CB1        -3.5290    2.1370   -0.5300 C.3       1 CTL1        0.0000
     10 HB1        -3.5740    2.7390    0.4060 H         1 CTL1        0.0000
     11 OA6        -2.3190    1.4350   -0.5770 O.3       1 CTL1        0.0000
     12 CA6        -2.0620    0.6790    0.6080 C.3       1 CTL1        0.0000
     13 HA6R       -2.3610   -0.3810    0.4470 H         1 CTL1        0.0000
     14 HA6S       -2.6300    1.0780    1.4770 H         1 CTL1        0.0000
     15 CB4        -5.9970    3.0080   -1.6210 C.3       1 CTL1        0.0000
     16 HB4        -6.0750    2.4520   -2.5900 H         1 CTL1        0.0000
     17 OB4        -7.1540    3.7950   -1.3430 O.3       1 CTL1        0.0000
     18 PB         -8.4200    3.8340   -2.4080 P.3       1 CTL1        0.0000
     19 OPB4       -7.9490    4.7410   -3.5380 O.2       1 CTL1        0.0000
     20 OPB3       -9.5800    4.4040   -1.6020 O.3       1 CTL1        0.0000
     21 OPB2       -8.6230    2.3800   -2.8290 O.3       1 CTL1        0.0000
     22 CB3        -4.7710    3.8870   -1.6990 C.3       1 CTL1        0.0000
     23 OB3        -4.8070    4.6410   -2.9070 O.3       1 CTL1        0.0000
     24 HB3        -4.7190    4.5240   -0.7790 H         1 CTL1        0.0000
     25 C71        -5.3390    5.8700   -2.8190 C.2       1 CTL1        0.0000
     26 O71        -5.2050    6.5830   -1.8350 O.2       1 CTL1        0.0000
     27 C72        -5.3140    6.4220   -4.2610 C.3       1 CTL1        0.0000
     28 H72R       -6.1770    5.9480   -4.7770 H         1 CTL1        0.0000
     29 H72S       -4.3810    6.0900   -4.7560 H         1 CTL1        0.0000
     30 CB2        -3.5180    3.0490   -1.7310 C.3       1 CTL1        0.0000
     31 HB2        -3.5710    2.3990   -2.6440 H         1 CTL1        0.0000
     32 NB2        -2.3040    3.8620   -1.7740 N.am      1 CTL1        0.0000
     33 HNB2       -2.0820    4.3580   -0.9450 H         1 CTL1        0.0000
     34 CA4        -0.0750    2.2000    0.9690 C.3       1 CTL1        0.0000
     35 HA4        -0.3430    2.6800   -0.0020 H         1 CTL1        0.0000
     36 OA4        -0.7360    2.8940    2.0240 O.3       1 CTL1        0.0000
     37 HOA4       -0.6470    3.8370    1.8130 H         1 CTL1        0.0000
     38 CA5        -0.5750    0.7660    0.8830 C.3       1 CTL1        0.0000
     39 HA5        -0.3590    0.2370    1.8390 H         1 CTL1        0.0000
     40 OA5         0.0870    0.0970   -0.1990 O.3       1 CTL1        0.0000
     41 CA1         1.5120    0.0430   -0.0400 C.3       1 CTL1        0.0000
     42 HA1         1.8910   -0.4550   -0.9680 H         1 CTL1        0.0000
     43 OA1         1.8420   -0.7010    1.1210 O.3       1 CTL1        0.0000
     44 OPA2        3.0350   -2.5250    2.3860 O.3       1 CTL1        0.0000
     45 OPA3        3.0900   -2.4710   -0.1710 O.2       1 CTL1        0.0000
     46 OPA4        4.3510   -0.7210    1.1650 O.3       1 CTL1        0.0000
     47 PA          3.1670   -1.6820    1.1280 P.3       1 CTL1        0.0000
     48 CA3         1.4400    2.2660    1.0930 C.3       1 CTL1        0.0000
     49 HA3         1.7190    1.7410    2.0410 H         1 CTL1        0.0000
     50 OA3         2.1070    3.5360    1.1300 O.3       1 CTL1        0.0000
     51 C31         1.5510    4.7000    0.9110 C.2       1 CTL1        0.0000
     52 O31         0.3680    4.9360    0.7260 O.2       1 CTL1        0.0000
     53 C32         2.5820    5.7720    1.2850 C.3       1 CTL1        0.0000
     54 H32R        3.4570    5.6570    0.6130 H         1 CTL1        0.0000
     55 H32S        2.9070    5.5640    2.3260 H         1 CTL1        0.0000
     56 CA2         2.0520    1.4600   -0.0310 C.3       1 CTL1        0.0000
     57 HA2         1.7030    1.9250   -0.9880 H         1 CTL1        0.0000
     58 NA2         3.4940    1.4420   -0.0470 N.am      1 CTL1        0.0000
     59 HNA2        3.8780    0.6360    0.4610 H         1 CTL1        0.0000
     60 C73        -5.4540    7.9600   -4.3530 C.3       1 CTL1        0.0000
     61 H73R       -6.3090    8.2950   -3.7200 H         1 CTL1        0.0000
     62 H73S       -5.6980    8.2180   -5.4090 H         1 CTL1        0.0000
     63 C74        -4.1750    8.7080   -3.9540 C.3       1 CTL1        0.0000
     64 H74R       -3.3150    8.3410   -4.5550 H         1 CTL1        0.0000
     65 H74S       -3.9580    8.4810   -2.8850 H         1 CTL1        0.0000
     66 C75        -4.3080   10.2270   -4.1100 C.3       1 CTL1        0.0000
     67 H75R       -5.2940   10.5330   -3.6910 H         1 CTL1        0.0000
     68 H75S       -4.3030   10.4960   -5.1870 H         1 CTL1        0.0000
     69 C76        -3.2120   10.9930   -3.3590 C.3       1 CTL1        0.0000
     70 H76R       -2.2160   10.6910   -3.7460 H         1 CTL1        0.0000
     71 H76S       -3.2620   10.6860   -2.2890 H         1 CTL1        0.0000
     72 C77        -3.3880   12.5150   -3.4510 C.3       1 CTL1        0.0000
     73 H77R       -4.4740   12.7450   -3.3370 H         1 CTL1        0.0000
     74 H77S       -3.0670   12.8730   -4.4540 H         1 CTL1        0.0000
     75 C78        -2.6320   13.2730   -2.3480 C.3       1 CTL1        0.0000
     76 H78R       -1.5360   13.1530   -2.4840 H         1 CTL1        0.0000
     77 H78S       -2.8980   12.8210   -1.3650 H         1 CTL1        0.0000
     78 C79        -2.9950   14.7650   -2.3060 C.3       1 CTL1        0.0000
     79 H79R       -4.1060   14.8440   -2.3050 H         1 CTL1        0.0000
     80 H79S       -2.6380   15.2670   -3.2300 H         1 CTL1        0.0000
     81 C710       -2.4750   15.4960   -1.0570 C.3       1 CTL1        0.0000
     82 H710       -2.7840   14.9220   -0.1540 H         1 CTL1        0.0000
     83 H710       -2.9590   16.4980   -0.9990 H         1 CTL1        0.0000
     84 C711       -0.9520   15.6970   -1.0190 C.3       1 CTL1        0.0000
     85 H711       -0.4400   14.7170   -1.1310 H         1 CTL1        0.0000
     86 H711       -0.6810   16.1040   -0.0180 H         1 CTL1        0.0000
     87 C712       -0.4460   16.6750   -2.0870 C.3       1 CTL1        0.0000
     88 H712       -1.0440   17.6120   -2.0270 H         1 CTL1        0.0000
     89 H712       -0.6060   16.2400   -3.0980 H         1 CTL1        0.0000
     90 C713        1.0360   17.0270   -1.9160 C.3       1 CTL1        0.0000
     91 H713        1.6460   16.1040   -2.0470 H         1 CTL1        0.0000
     92 H713        1.2000   17.3910   -0.8760 H         1 CTL1        0.0000
     93 C714        1.5130   18.1010   -2.8970 C.3       1 CTL1        0.0000
     94 H714        0.9420   19.0430   -2.7480 H         1 CTL1        0.0000
     95 H714        1.3610   17.7690   -3.9460 H         1 CTL1        0.0000
     96 H714        2.5920   18.3150   -2.7440 H         1 CTL1        0.0000
     97 C51        -1.4130    3.8630   -2.7760 C.2       1 CTL1        0.0000
     98 O51        -1.6200    3.3550   -3.8710 O.2       1 CTL1        0.0000
     99 C52        -0.0840    4.5050   -2.4610 C.3       1 CTL1        0.0000
    100 H52R        0.5870    3.7260   -2.0400 H         1 CTL1        0.0000
    101 H52S       -0.2210    5.3050   -1.7070 H         1 CTL1        0.0000
    102 C53         0.5610    5.0940   -3.7210 C.3       1 CTL1        0.0000
    103 H53R        0.5880    4.3140   -4.5220 H         1 CTL1        0.0000
    104 O53         1.8660    5.5070   -3.2980 O.3       1 CTL1        0.0000
    105 C61         2.8860    5.1400   -4.0630 C.2       1 CTL1        0.0000
    106 O61         2.8070    4.6330   -5.1660 O.2       1 CTL1        0.0000
    107 C62         4.1760    5.7280   -3.4830 C.3       1 CTL1        0.0000
    108 H62R        5.0170    5.4150   -4.1310 H         1 CTL1        0.0000
    109 H62S        4.3150    5.2780   -2.4790 H         1 CTL1        0.0000
    110 C63         4.1460    7.2660   -3.3380 C.3       1 CTL1        0.0000
    111 H63R        4.9420    7.5700   -2.6210 H         1 CTL1        0.0000
    112 H63S        3.1780    7.5860   -2.9030 H         1 CTL1        0.0000
    113 C64         4.3850    8.0120   -4.6550 C.3       1 CTL1        0.0000
    114 H64R        3.5780    7.7710   -5.3780 H         1 CTL1        0.0000
    115 H64S        5.3390    7.6550   -5.1020 H         1 CTL1        0.0000
    116 C65         4.4540    9.5320   -4.4520 C.3       1 CTL1        0.0000
    117 H65R        5.2580    9.7530   -3.7150 H         1 CTL1        0.0000
    118 H65S        3.4980    9.9070   -4.0240 H         1 CTL1        0.0000
    119 C66         4.7520   10.2860   -5.7520 C.3       1 CTL1        0.0000
    120 H66R        3.8950   10.1640   -6.4520 H         1 CTL1        0.0000
    121 H66S        5.6460    9.8410   -6.2420 H         1 CTL1        0.0000
    122 C67         5.0190   11.7770   -5.5230 C.3       1 CTL1        0.0000
    123 H67R        5.8630   11.8980   -4.8080 H         1 CTL1        0.0000
    124 H67S        4.1240   12.2460   -5.0610 H         1 CTL1        0.0000
    125 C68         5.3540   12.5020   -6.8320 C.3       1 CTL1        0.0000
    126 H68R        4.4880   12.4210   -7.5260 H         1 CTL1        0.0000
    127 H68S        6.2190   11.9980   -7.3180 H         1 CTL1        0.0000
    128 C69         5.6870   13.9810   -6.6240 C.3       1 CTL1        0.0000
    129 H69R        6.6020   14.0730   -5.9970 H         1 CTL1        0.0000
    130 H69S        4.8500   14.4670   -6.0720 H         1 CTL1        0.0000
    131 C610        5.8980   14.7120   -7.9550 C.3       1 CTL1        0.0000
    132 H610        5.0010   14.5570   -8.5970 H         1 CTL1        0.0000
    133 H610        6.7700   14.2750   -8.4920 H         1 CTL1        0.0000
    134 C611        6.1110   16.2150   -7.7580 C.3       1 CTL1        0.0000
    135 H611        7.0470   16.3870   -7.1800 H         1 CTL1        0.0000
    136 H611        5.2660   16.6180   -7.1550 H         1 CTL1        0.0000
    137 C612        6.1790   16.9780   -9.0870 C.3       1 CTL1        0.0000
    138 H612        5.2770   16.7320   -9.6920 H         1 CTL1        0.0000
    139 H612        7.0710   16.6410   -9.6600 H         1 CTL1        0.0000
    140 C613        6.2410   18.4950   -8.8740 C.3       1 CTL1        0.0000
    141 H613        7.1270   18.7410   -8.2460 H         1 CTL1        0.0000
    142 H613        5.3340   18.8160   -8.3150 H         1 CTL1        0.0000
    143 C614        6.3240   19.2860  -10.1860 C.3       1 CTL1        0.0000
    144 H614        5.4620   19.0160  -10.8370 H         1 CTL1        0.0000
    145 H614        7.2570   19.0010  -10.7220 H         1 CTL1        0.0000
    146 C615        6.3180   20.8010   -9.9390 C.3       1 CTL1        0.0000
    147 H615        7.1250   21.0490   -9.2130 H         1 CTL1        0.0000
    148 H615        5.3480   21.0920   -9.4770 H         1 CTL1        0.0000
    149 C616        6.5360   21.6230  -11.2160 C.3       1 CTL1        0.0000
    150 H616        5.7380   21.3820  -11.9530 H         1 CTL1        0.0000
    151 H616        7.5120   21.3350  -11.6680 H         1 CTL1        0.0000
    152 C617        6.5380   23.1340  -10.9460 C.3       1 CTL1        0.0000
    153 H617        7.2990   23.3580  -10.1640 H         1 CTL1        0.0000
    154 H617        5.5450   23.4270  -10.5360 H         1 CTL1        0.0000
    155 C618        6.8400   23.9740  -12.1890 C.3       1 CTL1        0.0000
    156 H618        6.0830   23.7840  -12.9810 H         1 CTL1        0.0000
    157 H618        7.8430   23.7210  -12.5950 H         1 CTL1        0.0000
    158 H618        6.8250   25.0570  -11.9390 H         1 CTL1        0.0000
    159 C54        -0.2100    6.3350   -4.2350 C.3       1 CTL1        0.0000
    160 H54R       -0.2430    7.0900   -3.4190 H         1 CTL1        0.0000
    161 H54S       -1.2570    6.0420   -4.4750 H         1 CTL1        0.0000
    162 C55         0.4150    6.9650   -5.4890 C.3       1 CTL1        0.0000
    163 H55R        0.3840    6.2290   -6.3230 H         1 CTL1        0.0000
    164 H55S        1.4860    7.1740   -5.2780 H         1 CTL1        0.0000
    165 C56        -0.2420    8.2790   -5.9300 C.3       1 CTL1        0.0000
    166 H56R       -0.2910    8.9770   -5.0640 H         1 CTL1        0.0000
    167 H56S       -1.2850    8.0910   -6.2690 H         1 CTL1        0.0000
    168 C57         0.5690    8.9350   -7.0550 C.3       1 CTL1        0.0000
    169 H57R        0.6380    8.2300   -7.9150 H         1 CTL1        0.0000
    170 H57S        1.6050    9.1040   -6.6820 H         1 CTL1        0.0000
    171 C58        -0.0050   10.2710   -7.5400 C.3       1 CTL1        0.0000
    172 H58R       -0.1790   10.9380   -6.6660 H         1 CTL1        0.0000
    173 H58S       -0.9870   10.0950   -8.0320 H         1 CTL1        0.0000
    174 C59         0.9520   10.9680   -8.5190 C.3       1 CTL1        0.0000
    175 H59R        1.1770   10.2840   -9.3670 H         1 CTL1        0.0000
    176 H59S        1.9100   11.1720   -7.9900 H         1 CTL1        0.0000
    177 C510        0.3990   12.2850   -9.0760 C.3       1 CTL1        0.0000
    178 H510        0.0820   12.9260   -8.2280 H         1 CTL1        0.0000
    179 H510       -0.5040   12.0790   -9.6910 H         1 CTL1        0.0000
    180 C511        1.4320   13.0420   -9.9230 C.3       1 CTL1        0.0000
    181 H511        1.7200   12.4040  -10.7880 H         1 CTL1        0.0000
    182 H511        2.3490   13.2170   -9.3150 H         1 CTL1        0.0000
    183 C512        0.9060   14.3890  -10.4370 C.3       1 CTL1        0.0000
    184 H512        0.6640   15.0510   -9.5750 H         1 CTL1        0.0000
    185 H512       -0.0400   14.2140  -10.9980 H         1 CTL1        0.0000
    186 C513        1.9020   15.1020  -11.3620 C.3       1 CTL1        0.0000
    187 H513        2.1330   14.4310  -12.2200 H         1 CTL1        0.0000
    188 H513        2.8550   15.2920  -10.8210 H         1 CTL1        0.0000
    189 C514        1.3500   16.4230  -11.9120 C.3       1 CTL1        0.0000
    190 H514        1.2800   17.1680  -11.0910 H         1 CTL1        0.0000
    191 H514        0.3150   16.2430  -12.2820 H         1 CTL1        0.0000
    192 C515        2.1880   16.9850  -13.0690 C.3       1 CTL1        0.0000
    193 H515        2.2910   16.1830  -13.8350 H         1 CTL1        0.0000
    194 H515        3.2110   17.2390  -12.7200 H         1 CTL1        0.0000
    195 C516        1.5440   18.2130  -13.7270 C.3       1 CTL1        0.0000
    196 H516        1.7030   19.1090  -13.0840 H         1 CTL1        0.0000
    197 H516        0.4460   18.0340  -13.8000 H         1 CTL1        0.0000
    198 C517        2.0760   18.4700  -15.1450 C.3       1 CTL1        0.0000
    199 H517        1.9320   17.5480  -15.7540 H         1 CTL1        0.0000
    200 H517        3.1680   18.6760  -15.1140 H         1 CTL1        0.0000
    201 C518        1.3530   19.6280  -15.8450 C.3       1 CTL1        0.0000
    202 H518        1.5730   20.5760  -15.3090 H         1 CTL1        0.0000
    203 H518        0.2540   19.4580  -15.7890 H         1 CTL1        0.0000
    204 C519        1.7500   19.7770  -17.3180 C.3       1 CTL1        0.0000
    205 H519        1.5300   18.8230  -17.8480 H         1 CTL1        0.0000
    206 H519        2.8480   19.9430  -17.3850 H         1 CTL1        0.0000
    207 C520        1.0240   20.9210  -18.0280 C.3       1 CTL1        0.0000
    208 H520        1.2520   21.8920  -17.5380 H         1 CTL1        0.0000
    209 H520       -0.0740   20.7600  -17.9910 H         1 CTL1        0.0000
    210 H520        1.3380   20.9840  -19.0920 H         1 CTL1        0.0000
    211 C33         2.0160    7.2120    1.2190 C.3       1 CTL1        0.0000
    212 H33R        2.7170    7.8790    1.7740 H         1 CTL1        0.0000
    213 H33S        1.0280    7.2760    1.7280 H         1 CTL1        0.0000
    214 C34         1.9010    7.7350   -0.2190 C.3       1 CTL1        0.0000
    215 H34R        1.2010    7.0920   -0.7990 H         1 CTL1        0.0000
    216 H34S        2.9010    7.6610   -0.7020 H         1 CTL1        0.0000
    217 C35         1.4230    9.1930   -0.3040 C.3       1 CTL1        0.0000
    218 H35R        2.1570    9.8430    0.2200 H         1 CTL1        0.0000
    219 H35S        0.4470    9.3060    0.2170 H         1 CTL1        0.0000
    220 C36         1.2690    9.6680   -1.7570 C.3       1 CTL1        0.0000
    221 H36R        0.3970    9.1600   -2.2260 H         1 CTL1        0.0000
    222 H36S        2.1740    9.3680   -2.3260 H         1 CTL1        0.0000
    223 C37         1.1270   11.1880   -1.9050 C.3       1 CTL1        0.0000
    224 H37R        2.0680   11.6650   -1.5490 H         1 CTL1        0.0000
    225 H37S        0.2980   11.5520   -1.2570 H         1 CTL1        0.0000
    226 C38         0.8700   11.6030   -3.3620 C.3       1 CTL1        0.0000
    227 H38R       -0.2010   11.4210   -3.5940 H         1 CTL1        0.0000
    228 H38S        1.4740   10.9670   -4.0520 H         1 CTL1        0.0000
    229 C39         1.2060   13.0740   -3.6410 C.3       1 CTL1        0.0000
    230 H39R        2.3120   13.1880   -3.6530 H         1 CTL1        0.0000
    231 H39S        0.8130   13.7130   -2.8190 H         1 CTL1        0.0000
    232 C310        0.6160   13.5710   -4.9680 C.3       1 CTL1        0.0000
    233 H310       -0.4900   13.6170   -4.8630 H         1 CTL1        0.0000
    234 H310        0.8450   12.8410   -5.7760 H         1 CTL1        0.0000
    235 C311        1.1700   14.9430   -5.3790 C.3       1 CTL1        0.0000
    236 H311        2.2340   14.8160   -5.6830 H         1 CTL1        0.0000
    237 H311        1.1550   15.6190   -4.4990 H         1 CTL1        0.0000
    238 C312        0.3940   15.6010   -6.5300 C.3       1 CTL1        0.0000
    239 H312        0.2380   14.8570   -7.3380 H         1 CTL1        0.0000
    240 H312        1.0100   16.4290   -6.9500 H         1 CTL1        0.0000
    241 C313       -0.9630   16.1810   -6.1040 C.3       1 CTL1        0.0000
    242 H313       -0.7910   16.9740   -5.3410 H         1 CTL1        0.0000
    243 H313       -1.5730   15.3850   -5.6190 H         1 CTL1        0.0000
    244 C314       -1.7580   16.7700   -7.2710 C.3       1 CTL1        0.0000
    245 H314       -1.9920   15.9820   -8.0190 H         1 CTL1        0.0000
    246 H314       -1.1740   17.5700   -7.7750 H         1 CTL1        0.0000
    247 H314       -2.7150   17.2050   -6.9110 H         1 CTL1        0.0000
    248 C11         4.2820    2.1140   -0.8810 C.2       1 CTL1        0.0000
    249 O11         3.9200    3.1280   -1.4740 O.2       1 CTL1        0.0000
    250 C12         5.6370    1.4840   -1.1220 C.3       1 CTL1        0.0000
    251 H12R        5.4540    0.5840   -1.7480 H         1 CTL1        0.0000
    252 H12S        6.0480    1.1430   -0.1490 H         1 CTL1        0.0000
    253 C13         6.6090    2.4460   -1.8200 C.3       1 CTL1        0.0000
    254 H13R        6.1260    2.9160   -2.7060 H         1 CTL1        0.0000
    255 O13         7.7100    1.6730   -2.2710 O.3       1 CTL1        0.0000
    256 HO13        7.4640    0.8850   -2.7610 H         1 CTL1        0.0000
    257 C14         7.1390    3.5400   -0.8700 C.3       1 CTL1        0.0000
    258 H14R        7.5900    3.0230    0.0080 H         1 CTL1        0.0000
    259 H14S        6.2770    4.1400   -0.5060 H         1 CTL1        0.0000
    260 C15         8.2070    4.4800   -1.4660 C.3       1 CTL1        0.0000
    261 H15R        9.0410    3.8720   -1.8830 H         1 CTL1        0.0000
    262 H15S        8.6210    5.0920   -0.6320 H         1 CTL1        0.0000
    263 C16         7.6820    5.4330   -2.5500 C.3       1 CTL1        0.0000
    264 H16R        6.7660    5.9340   -2.1690 H         1 CTL1        0.0000
    265 H16S        7.3960    4.8560   -3.4560 H         1 CTL1        0.0000
    266 C17         8.7120    6.5120   -2.9250 C.3       1 CTL1        0.0000
    267 H17R        9.6150    6.0330   -3.3620 H         1 CTL1        0.0000
    268 H17S        9.0290    7.0250   -1.9900 H         1 CTL1        0.0000
    269 C18         8.1580    7.5590   -3.9030 C.3       1 CTL1        0.0000
    270 H18R        7.1850    7.9270   -3.5080 H         1 CTL1        0.0000
    271 H18S        7.9530    7.0840   -4.8870 H         1 CTL1        0.0000
    272 C19         9.0870    8.7710   -4.0850 C.3       1 CTL1        0.0000
    273 H19R       10.0450    8.4530   -4.5500 H         1 CTL1        0.0000
    274 H19S        9.3260    9.1810   -3.0780 H         1 CTL1        0.0000
    275 C110        8.4370    9.8830   -4.9220 C.3       1 CTL1        0.0000
    276 H110        7.4130   10.0600   -4.5210 H         1 CTL1        0.0000
    277 H110        8.3260    9.5550   -5.9780 H         1 CTL1        0.0000
    278 C111        9.1930   11.2190   -4.8630 C.3       1 CTL1        0.0000
    279 H111        9.4250   11.4580   -3.8010 H         1 CTL1        0.0000
    280 H111        8.5210   12.0170   -5.2560 H         1 CTL1        0.0000
    281 C112       10.4910   11.2430   -5.6840 C.3       1 CTL1        0.0000
    282 H112       10.2430   11.0540   -6.7520 H         1 CTL1        0.0000
    283 H112       11.1710   10.4310   -5.3480 H         1 CTL1        0.0000
    284 C113       11.2210   12.5910   -5.5650 C.3       1 CTL1        0.0000
    285 H113       11.6080   12.7050   -4.5280 H         1 CTL1        0.0000
    286 H113       10.4920   13.4130   -5.7420 H         1 CTL1        0.0000
    287 C114       12.3770   12.7480   -6.5630 C.3       1 CTL1        0.0000
    288 H114       11.9620   12.7120   -7.5950 H         1 CTL1        0.0000
    289 H114       13.0830   11.8950   -6.4560 H         1 CTL1        0.0000
    290 C115       13.1470   14.0650   -6.3760 C.3       1 CTL1        0.0000
    291 H115       13.7030   14.0320   -5.4130 H         1 CTL1        0.0000
    292 H115       12.4220   14.9090   -6.3150 H         1 CTL1        0.0000
    293 C116       14.1270   14.3500   -7.5230 C.3       1 CTL1        0.0000
    294 H116       13.5460   14.4760   -8.4650 H         1 CTL1        0.0000
    295 H116       14.8050   13.4770   -7.6600 H         1 CTL1        0.0000
    296 C117       14.9730   15.6080   -7.2810 C.3       1 CTL1        0.0000
    297 H117       15.6550   15.4270   -6.4220 H         1 CTL1        0.0000
    298 H117       14.3040   16.4540   -7.0050 H         1 CTL1        0.0000
    299 C118       15.7940   16.0150   -8.5120 C.3       1 CTL1        0.0000
    300 H118       15.0990   16.2770   -9.3420 H         1 CTL1        0.0000
    301 H118       16.4080   15.1500   -8.8480 H         1 CTL1        0.0000
    302 C119       16.7200   17.2060   -8.2390 C.3       1 CTL1        0.0000
    303 H119       17.4570   16.9160   -7.4560 H         1 CTL1        0.0000
    304 H119       16.1150   18.0480   -7.8300 H         1 CTL1        0.0000
    305 C120       17.4650   17.6820   -9.4880 C.3       1 CTL1        0.0000
    306 H120       16.7430   18.0250  -10.2600 H         1 CTL1        0.0000
    307 H120       18.0670   16.8540   -9.9210 H         1 CTL1        0.0000
    308 H120       18.1480   18.5230   -9.2390 H         1 CTL1        0.0000
@<TRIPOS>BOND
     1  210  207 1 
     2  207  209 1 
     3  207  208 1 
     4  207  204 1 
     5  205  204 1 
     6  206  204 1 
     7  204  201 1 
     8  201  203 1 
     9  201  202 1 
    10  201  198 1 
    11  199  198 1 
    12  198  200 1 
    13  198  195 1 
    14  193  192 1 
    15  197  195 1 
    16  195  196 1 
    17  195  192 1 
    18  192  194 1 
    19  192  189 1 
    20  156  155 1 
    21  157  155 1 
    22  191  189 1 
    23  187  186 1 
    24  155  158 1 
    25  155  152 1 
    26  150  149 1 
    27  189  186 1 
    28  189  190 1 
    29  151  149 1 
    30  186  188 1 
    31  186  183 1 
    32  149  152 1 
    33  149  146 1 
    34  185  183 1 
    35  152  154 1 
    36  152  153 1 
    37  144  143 1 
    38  181  180 1 
    39  145  143 1 
    40  183  180 1 
    41  183  184 1 
    42  306  305 1 
    43  143  146 1 
    44  143  140 1 
    45  146  148 1 
    46  146  147 1 
    47  180  182 1 
    48  180  177 1 
    49  307  305 1 
    50  138  137 1 
    51  179  177 1 
    52  139  137 1 
    53  305  308 1 
    54  305  302 1 
    55  175  174 1 
    56  300  299 1 
    57  137  140 1 
    58  137  134 1 
    59  177  174 1 
    60  177  178 1 
    61  140  142 1 
    62  140  141 1 
    63  301  299 1 
    64  132  131 1 
    65  174  176 1 
    66  174  171 1 
    67  299  302 1 
    68  299  296 1 
    69  133  131 1 
    70  294  293 1 
    71  302  304 1 
    72  302  303 1 
    73  173  171 1 
    74  245  244 1 
    75  131  134 1 
    76  131  128 1 
    77  169  168 1 
    78  246  244 1 
    79  134  135 1 
    80  134  136 1 
    81  295  293 1 
    82  288  287 1 
    83  171  168 1 
    84  171  172 1 
    85  126  125 1 
    86  293  296 1 
    87  293  290 1 
    88  239  238 1 
    89  127  125 1 
    90  296  298 1 
    91  296  297 1 
    92  244  247 1 
    93  244  241 1 
    94  168  170 1 
    95  168  165 1 
    96  240  238 1 
    97  125  128 1 
    98  125  122 1 
    99  282  281 1 
   100  128  130 1 
   101  128  129 1 
   102  287  289 1 
   103  287  290 1 
   104  287  284 1 
   105  238  241 1 
   106  238  235 1 
   107  120  119 1 
   108  290  292 1 
   109  290  291 1 
   110  163  162 1 
   111  167  165 1 
   112  121  119 1 
   113  241  243 1 
   114  241  242 1 
   115  277  275 1 
   116  165  162 1 
   117  165  166 1 
   118  234  232 1 
   119  119  122 1 
   120  119  116 1 
   121  286  284 1 
   122  281  284 1 
   123  281  283 1 
   124  281  278 1 
   125  236  235 1 
   126  284  285 1 
   127  122  124 1 
   128  122  123 1 
   129  162  164 1 
   130  162  159 1 
   131   62   60 1 
   132  235  232 1 
   133  235  237 1 
   134  114  113 1 
   135  280  278 1 
   136   68   66 1 
   137  106  105 2 
   138  115  113 1 
   139  232  233 1 
   140  232  229 1 
   141  275  278 1 
   142  275  276 1 
   143  275  272 1 
   144  271  269 1 
   145  278  279 1 
   146   28   27 1 
   147   29   27 1 
   148  113  116 1 
   149  113  110 1 
   150   64   63 1 
   151  273  272 1 
   152  103  102 1 
   153  161  159 1 
   154   74   72 1 
   155  116  118 1 
   156  116  117 1 
   157   60   27 1 
   158   60   63 1 
   159   60   61 1 
   160   27   25 1 
   161  159  102 1 
   162  159  160 1 
   163  108  107 1 
   164   66   63 1 
   165   66   67 1 
   166   66   69 1 
   167  272  269 1 
   168  272  274 1 
   169  105  107 1 
   170  105  104 1 
   171  228  226 1 
   172   63   65 1 
   173   95   93 1 
   174  269  270 1 
   175  269  266 1 
   176   98   97 2 
   177   70   69 1 
   178  102  104 1 
   179  102   99 1 
   180  230  229 1 
   181  229  226 1 
   182  229  231 1 
   183  227  226 1 
   184   19   18 2 
   185  107  110 1 
   186  107  109 1 
   187  265  263 1 
   188   72   69 1 
   189   72   73 1 
   190   72   75 1 
   191  267  266 1 
   192  226  223 1 
   193   69   71 1 
   194  110  112 1 
   195  110  111 1 
   196   80   78 1 
   197   89   87 1 
   198  266  263 1 
   199  266  268 1 
   200   23   25 1 
   201   23   22 1 
   202   93   94 1 
   203   93   96 1 
   204   93   90 1 
   205   21   18 1 
   206   25   26 2 
   207   97   99 1 
   208   97   32 am
   209  256  255 1 
   210  254  253 1 
   211   31   30 1 
   212   16   15 1 
   213  263  264 1 
   214  263  260 1 
   215   76   75 1 
   216   99  100 1 
   217   99  101 1 
   218   18   20 1 
   219   18   17 1 
   220   75   78 1 
   221   75   77 1 
   222  222  220 1 
   223   78   79 1 
   224   78   81 1 
   225  255  253 1 
   226  221  220 1 
   227   87   88 1 
   228   87   90 1 
   229   87   84 1 
   230   91   90 1 
   231   90   92 1 
   232  223  220 1 
   233  223  224 1 
   234  223  225 1 
   235  261  260 1 
   236  253  250 1 
   237  253  257 1 
   238   32   30 1 
   239   32   33 1 
   240  220  217 1 
   241  251  250 1 
   242   30   22 1 
   243   30    9 1 
   244   22   15 1 
   245   22   24 1 
   246   15   17 1 
   247   15    6 1 
   248    5    4 1 
   249  249  248 2 
   250  260  257 1 
   251  260  262 1 
   252   85   84 1 
   253  250  248 1 
   254  250  252 1 
   255   81   84 1 
   256   81   83 1 
   257   81   82 1 
   258   84   86 1 
   259   57   56 1 
   260   42   41 1 
   261  248   58 am
   262  257  259 1 
   263  257  258 1 
   264  215  214 1 
   265  216  214 1 
   266    7    9 1 
   267    7    6 1 
   268   11    9 1 
   269   11   12 1 
   270    9   10 1 
   271    6    4 1 
   272    6    8 1 
   273    4    1 1 
   274    4    2 1 
   275  217  214 1 
   276  217  219 1 
   277  217  218 1 
   278  214  211 1 
   279   40   41 1 
   280   40   38 1 
   281   45   47 2 
   282   58   56 1 
   283   58   59 1 
   284   41   56 1 
   285   41   43 1 
   286   56   48 1 
   287   35   34 1 
   288    3    2 1 
   289   13   12 1 
   290   12   38 1 
   291   12   14 1 
   292   54   53 1 
   293   52   51 2 
   294   38   34 1 
   295   38   39 1 
   296   51   50 1 
   297   51   53 1 
   298   34   48 1 
   299   34   36 1 
   300   48   50 1 
   301   48   49 1 
   302   43   47 1 
   303   47   46 1 
   304   47   44 1 
   305  211   53 1 
   306  211  213 1 
   307  211  212 1 
   308   53   55 1 
   309   37   36 1 
