@<TRIPOS>MOLECULE
C:\Users\Praveer\PycharmProjects\pdb_to_mol2_converter\data\pdb\cume.pdb
   21    21     0     0     0
SMALL
GASTEIGER

@<TRIPOS>ATOM
      1 CA1         1.1020   -0.0490    0.0040 C.ar      1 CUM1        0.0000
      2 HA1         0.0240   -0.0800    0.0310 H         1 CUM1        0.0000
      3 CA2         1.7640    1.1680   -0.2080 C.ar      1 CUM1        0.0000
      4 HA2         1.1920    2.0740   -0.3430 H         1 CUM1        0.0000
      5 CA3         3.1640    1.2100   -0.2470 C.ar      1 CUM1        0.0000
      6 HA3         3.6410    2.1600   -0.4250 H         1 CUM1        0.0000
      7 CA4         3.9210    0.0330   -0.0690 C.ar      1 CUM1        0.0000
      8 CA5         3.2410   -1.1800    0.1410 C.ar      1 CUM1        0.0000
      9 HA5         3.8080   -2.0890    0.2780 H         1 CUM1        0.0000
     10 CA6         1.8430   -1.2230    0.1790 C.ar      1 CUM1        0.0000
     11 HA6         1.3350   -2.1640    0.3430 H         1 CUM1        0.0000
     12 C4          5.4420   -0.0030   -0.1120 C.3       1 CUM1        0.0000
     13 H41         5.8140   -0.6750    0.6980 H         1 CUM1        0.0000
     14 C3          6.0810    1.3820    0.1310 C.3       1 CUM1        0.0000
     15 H31         5.7150    1.8260    1.0810 H         1 CUM1        0.0000
     16 H32         5.8520    2.0750   -0.7060 H         1 CUM1        0.0000
     17 H33         7.1850    1.2810    0.1950 H         1 CUM1        0.0000
     18 C5          5.8750   -0.5810   -1.4730 C.3       1 CUM1        0.0000
     19 H51         5.5190    0.0670   -2.3030 H         1 CUM1        0.0000
     20 H52         5.4690   -1.6030   -1.6230 H         1 CUM1        0.0000
     21 H53         6.9840   -0.6350   -1.5280 H         1 CUM1        0.0000
@<TRIPOS>BOND
     1   19   18 1 
     2   20   18 1 
     3   21   18 1 
     4   18   12 1 
     5   16   14 1 
     6    6    5 1 
     7    4    3 1 
     8    5    3 ar
     9    5    7 ar
    10    3    1 ar
    11   12    7 1 
    12   12   14 1 
    13   12   13 1 
    14    7    8 ar
    15    1    2 1 
    16    1   10 ar
    17   14   17 1 
    18   14   15 1 
    19    8   10 ar
    20    8    9 1 
    21   10   11 1 
