@<TRIPOS>MOLECULE
C:\Users\Praveer\PycharmProjects\pdb_to_mol2_converter\data\pdb\cybz.pdb
   16    16     0     0     0
SMALL
GASTEIGER

@<TRIPOS>ATOM
      1 C1          1.4020   -0.0010    0.0000 C.ar      1 CYB1        0.0000
      2 H1          1.9420   -0.9370    0.0030 H         1 CYB1        0.0000
      3 C2          2.1030    1.2110    0.0000 C.ar      1 CYB1        0.0000
      4 H2          3.1840    1.2100    0.0020 H         1 CYB1        0.0000
      5 C3          1.4040    2.4250    0.0010 C.ar      1 CYB1        0.0000
      6 H3          1.9450    3.3600    0.0050 H         1 CYB1        0.0000
      7 C4          0.0030    2.4250   -0.0010 C.ar      1 CYB1        0.0000
      8 H4         -0.5280    3.3660    0.0020 H         1 CYB1        0.0000
      9 C5         -0.7130    1.2150   -0.0120 C.ar      1 CYB1        0.0000
     10 C6          0.0010    0.0000   -0.0010 C.ar      1 CYB1        0.0000
     11 H6         -0.5310   -0.9400    0.0020 H         1 CYB1        0.0000
     12 C7         -2.2240    1.2360    0.0160 C.3       1 CYB1        0.0000
     13 H71        -2.5820    2.2600   -0.2230 H         1 CYB1        0.0000
     14 H72        -2.5410    0.9810    1.0490 H         1 CYB1        0.0000
     15 C8         -2.8850    0.3060   -0.9120 C.1       1 CYB1        0.0000
     16 N9         -3.4290   -0.4450   -1.6410 N.1       1 CYB1        0.0000
@<TRIPOS>BOND
     1   16   15 3 
     2   15   12 1 
     3   13   12 1 
     4    9    7 ar
     5    9   10 ar
     6    9   12 1 
     7    7    5 ar
     8    7    8 1 
     9   10    1 ar
    10   10   11 1 
    11    1    3 ar
    12    1    2 1 
    13    3    5 ar
    14    3    4 1 
    15    5    6 1 
    16   12   14 1 
