@<TRIPOS>MOLECULE
C:\Users\Praveer\PycharmProjects\pdb_to_mol2_converter\data\pdb\cyin.pdb
   17    18     0     0     0
SMALL
GASTEIGER

@<TRIPOS>ATOM
      1 N1          1.9040    1.0590    0.0000 N.ar      1 CYI1        0.0000
      2 H1          2.8950    1.2480    0.0000 H         1 CYI1        0.0000
      3 C2          0.9520    2.0470   -0.0000 C.ar      1 CYI1        0.0000
      4 C3          1.0280    3.4290   -0.0000 C.ar      1 CYI1        0.0000
      5 H3          1.9880    3.9220   -0.0000 H         1 CYI1        0.0000
      6 C4         -0.1590    4.1750   -0.0000 C.ar      1 CYI1        0.0000
      7 H4         -0.1100    5.2580   -0.0000 H         1 CYI1        0.0000
      8 C5         -1.4090    3.5300   -0.0000 C.ar      1 CYI1        0.0000
      9 C6         -1.4650    2.1220   -0.0000 C.ar      1 CYI1        0.0000
     10 H6         -2.4110    1.6010   -0.0000 H         1 CYI1        0.0000
     11 C7         -0.2870    1.3910   -0.0000 C.ar      1 CYI1        0.0000
     12 C8         -0.0310   -0.0180   -0.0000 C.ar      1 CYI1        0.0000
     13 H8         -0.7780   -0.7980   -0.0000 H         1 CYI1        0.0000
     14 C9          1.3210   -0.1980    0.0000 C.ar      1 CYI1        0.0000
     15 H9          1.8880   -1.1240    0.0000 H         1 CYI1        0.0000
     16 C10        -2.6210    4.3170   -0.0000 C.1       1 CYI1        0.0000
     17 N10        -3.6100    4.9610   -0.0000 N.1       1 CYI1        0.0000
@<TRIPOS>BOND
     1    1    2 1 
     2    1    3 ar
     3    1   14 ar
     4    3    4 ar
     5    3   11 ar
     6    4    5 1 
     7    4    6 ar
     8    6    7 1 
     9    6    8 ar
    10    8    9 ar
    11    8   16 1 
    12    9   10 1 
    13    9   11 ar
    14   11   12 ar
    15   12   13 1 
    16   12   14 ar
    17   14   15 1 
    18   16   17 3 
