@<TRIPOS>MOLECULE
C:\Users\Praveer\PycharmProjects\pdb_to_mol2_converter\data\pdb\cype.pdb
   13    13     0     0     0
SMALL
GASTEIGER

@<TRIPOS>ATOM
      1 C1         -0.0320   -0.0160   -0.0000 C.2       1 CYP1        0.0000
      2 H1         -0.6380   -0.9100   -0.0000 H         1 CYP1        0.0000
      3 C2          1.3350    0.0130   -0.0000 C.2       1 CYP1        0.0000
      4 H2          1.9780   -0.8550    0.0000 H         1 CYP1        0.0000
      5 C3          1.8480    1.4360   -0.0000 C.3       1 CYP1        0.0000
      6 H31         2.4790    1.6450   -0.8790 H         1 CYP1        0.0000
      7 H32         2.4790    1.6450    0.8790 H         1 CYP1        0.0000
      8 C4          0.6030    2.3170    0.0000 C.3       1 CYP1        0.0000
      9 H41         0.5900    2.9830   -0.8790 H         1 CYP1        0.0000
     10 H42         0.5900    2.9830    0.8790 H         1 CYP1        0.0000
     11 C5         -0.6040    1.3850    0.0000 C.3       1 CYP1        0.0000
     12 H51        -1.2430    1.5680    0.8790 H         1 CYP1        0.0000
     13 H52        -1.2430    1.5680   -0.8790 H         1 CYP1        0.0000
@<TRIPOS>BOND
     1    6    5 1 
     2    9    8 1 
     3   13   11 1 
     4    1    2 1 
     5    1    3 2 
     6    1   11 1 
     7    3    4 1 
     8    3    5 1 
     9    5    8 1 
    10    5    7 1 
    11    8   11 1 
    12    8   10 1 
    13   11   12 1 
