@<TRIPOS>MOLECULE
C:\Users\Praveer\PycharmProjects\pdb_to_mol2_converter\data\pdb\daltol.pdb
   26    25     0     0     0
SMALL
GASTEIGER

@<TRIPOS>ATOM
      1 C1          0.0490   -0.0410   -0.1550 C.3       1 DAL1        0.0000
      2 H11        -0.4590    0.7050    0.4980 H         1 DAL1        0.0000
      3 H12        -0.1980    0.1990   -1.2160 H         1 DAL1        0.0000
      4 O1         -0.4320   -1.3520    0.1740 O.3       1 DAL1        0.0000
      5 HO1        -1.3940   -1.3260    0.1420 H         1 DAL1        0.0000
      6 C2          1.5470    0.0320    0.0730 C.3       1 DAL1        0.0000
      7 H2          1.7690   -0.3930    1.0820 H         1 DAL1        0.0000
      8 O2          2.2010   -0.8020   -0.8930 O.3       1 DAL1        0.0000
      9 HO2         1.5290   -1.4710   -1.0780 H         1 DAL1        0.0000
     10 C3          2.0740    1.4700    0.0630 C.3       1 DAL1        0.0000
     11 H3          1.8370    1.9360    1.0480 H         1 DAL1        0.0000
     12 O3          1.4020    2.2250   -0.9550 O.3       1 DAL1        0.0000
     13 HO3         2.0710    2.8570   -1.2740 H         1 DAL1        0.0000
     14 C4          3.5760    1.5490   -0.1810 C.3       1 DAL1        0.0000
     15 H4          3.8170    1.1860   -1.2100 H         1 DAL1        0.0000
     16 O4          4.2200    0.6780    0.7570 O.3       1 DAL1        0.0000
     17 HO4         4.0850   -0.2070    0.3810 H         1 DAL1        0.0000
     18 C5          4.1280    2.9580   -0.0090 C.3       1 DAL1        0.0000
     19 H5          3.7310    3.4290    0.9200 H         1 DAL1        0.0000
     20 O5          3.7270    3.7280   -1.1510 O.3       1 DAL1        0.0000
     21 HO5         4.4560    4.3670   -1.2190 H         1 DAL1        0.0000
     22 C6          5.6490    2.9650    0.0270 C.3       1 DAL1        0.0000
     23 H61         6.0530    2.3970   -0.8420 H         1 DAL1        0.0000
     24 H62         6.0010    2.4680    0.9600 H         1 DAL1        0.0000
     25 O6          6.1630    4.3070   -0.0010 O.3       1 DAL1        0.0000
     26 HO6         7.0470    4.2890    0.3820 H         1 DAL1        0.0000
@<TRIPOS>BOND
     1   13   12 1 
     2   21   20 1 
     3    3    1 1 
     4   15   14 1 
     5   20   18 1 
     6    9    8 1 
     7   12   10 1 
     8    8    6 1 
     9   23   22 1 
    10   14   18 1 
    11   14   10 1 
    12   14   16 1 
    13    1    6 1 
    14    1    4 1 
    15    1    2 1 
    16   18   22 1 
    17   18   19 1 
    18   25   22 1 
    19   25   26 1 
    20   22   24 1 
    21   10    6 1 
    22   10   11 1 
    23    6    7 1 
    24    5    4 1 
    25   17   16 1 
