@<TRIPOS>MOLECULE
C:\Users\Praveer\PycharmProjects\pdb_to_mol2_converter\data\pdb\dapa.pdb
  120   119     0     0     0
SMALL
GASTEIGER

@<TRIPOS>ATOM
      1 P           1.4610    0.0640   -0.0090 P.3       1 DAP1        0.0000
      2 O13         2.0150   -0.8140    1.0320 O.3       1 DAP1        0.0000
      3 O14         1.8350   -0.1710   -1.4140 O.2       1 DAP1        0.0000
      4 O12         2.0900    1.4640    0.3100 O.3       1 DAP1        0.0000
      5 H12         3.0380    1.3490    0.2070 H         1 DAP1        0.0000
      6 O11        -0.0990    0.2550    0.1410 O.3       1 DAP1        0.0000
      7 C1         -0.8040    1.1240   -0.7510 C.3       1 DAP1        0.0000
      8 HA         -0.2020    1.4640   -1.6310 H         1 DAP1        0.0000
      9 HB         -1.0970    2.0310   -0.1770 H         1 DAP1        0.0000
     10 C2         -2.0900    0.4440   -1.2880 C.3       1 DAP1        0.0000
     11 HS         -1.8460   -0.0940   -2.2350 H         1 DAP1        0.0000
     12 O21        -3.1160    1.4340   -1.4870 O.3       1 DAP1        0.0000
     13 C21        -2.9350    2.2220   -2.5260 C.2       1 DAP1        0.0000
     14 O22        -2.0660    2.1260   -3.3730 O.2       1 DAP1        0.0000
     15 C22        -4.0340    3.2820   -2.5030 C.3       1 DAP1        0.0000
     16 H2R        -3.9830    3.8040   -1.5250 H         1 DAP1        0.0000
     17 H2S        -5.0060    2.7520   -2.5700 H         1 DAP1        0.0000
     18 C3         -2.6360   -0.6180   -0.2950 C.3       1 DAP1        0.0000
     19 HX         -2.8010   -0.0830    0.6720 H         1 DAP1        0.0000
     20 HY         -1.8550   -1.3940   -0.1360 H         1 DAP1        0.0000
     21 O31        -3.8430   -1.2220   -0.8170 O.3       1 DAP1        0.0000
     22 C31        -4.6670   -1.7050    0.0990 C.2       1 DAP1        0.0000
     23 O32        -4.4710   -1.7350    1.3000 O.2       1 DAP1        0.0000
     24 C32        -5.9290   -2.2150   -0.6010 C.3       1 DAP1        0.0000
     25 H2X        -5.6220   -2.9590   -1.3620 H         1 DAP1        0.0000
     26 H2Y        -6.3990   -1.3520   -1.1160 H         1 DAP1        0.0000
     27 C23        -3.9080    4.3010   -3.6550 C.3       1 DAP1        0.0000
     28 H3R        -3.8880    3.7540   -4.6270 H         1 DAP1        0.0000
     29 H3S        -2.9420    4.8480   -3.5550 H         1 DAP1        0.0000
     30 C24        -5.0750    5.3040   -3.6590 C.3       1 DAP1        0.0000
     31 H4R        -5.0940    5.8270   -2.6760 H         1 DAP1        0.0000
     32 H4S        -6.0280    4.7340   -3.7450 H         1 DAP1        0.0000
     33 C25        -4.9580    6.3020   -4.7800 C.2       1 DAP1        0.0000
     34 H5R        -4.0650    6.1990   -5.4170 H         1 DAP1        0.0000
     35 C26        -5.8490    7.2760   -5.0410 C.2       1 DAP1        0.0000
     36 H6R        -5.6560    7.9490   -5.8920 H         1 DAP1        0.0000
     37 C27        -7.1130    7.5290   -4.2490 C.3       1 DAP1        0.0000
     38 H7R        -6.8500    7.7070   -3.1820 H         1 DAP1        0.0000
     39 H7S        -7.7440    6.6120   -4.2590 H         1 DAP1        0.0000
     40 C28        -7.9210    8.6960   -4.7660 C.2       1 DAP1        0.0000
     41 H8R        -7.5060    9.2190   -5.6430 H         1 DAP1        0.0000
     42 C29        -9.0830    9.1470   -4.2570 C.2       1 DAP1        0.0000
     43 H9R        -9.5530   10.0140   -4.7490 H         1 DAP1        0.0000
     44 C210       -9.8280    8.5850   -3.0640 C.3       1 DAP1        0.0000
     45 H10R       -9.1710    8.6100   -2.1650 H         1 DAP1        0.0000
     46 H10S      -10.0680    7.5130   -3.2410 H         1 DAP1        0.0000
     47 C211      -11.1030    9.3490   -2.7810 C.2       1 DAP1        0.0000
     48 H11R      -11.3230   10.1910   -3.4570 H         1 DAP1        0.0000
     49 C212      -11.9820    9.1000   -1.7950 C.2       1 DAP1        0.0000
     50 H12R      -12.8680    9.7510   -1.7210 H         1 DAP1        0.0000
     51 C213      -11.8800    8.0030   -0.7610 C.3       1 DAP1        0.0000
     52 H13R      -10.9280    8.1130   -0.1950 H         1 DAP1        0.0000
     53 H13S      -11.8230    7.0150   -1.2720 H         1 DAP1        0.0000
     54 C214      -13.0470    8.0100    0.2020 C.2       1 DAP1        0.0000
     55 H14R      -13.8080    8.7910    0.0400 H         1 DAP1        0.0000
     56 C215      -13.2300    7.1560    1.2230 C.2       1 DAP1        0.0000
     57 H15R      -14.1240    7.2650    1.8560 H         1 DAP1        0.0000
     58 C216      -12.3060    6.0290    1.6030 C.3       1 DAP1        0.0000
     59 H16R      -11.2920    6.4190    1.8430 H         1 DAP1        0.0000
     60 H16S      -12.1950    5.3130    0.7570 H         1 DAP1        0.0000
     61 C217      -12.8400    5.2630    2.8280 C.3       1 DAP1        0.0000
     62 H17R      -13.8500    4.8510    2.6010 H         1 DAP1        0.0000
     63 H17S      -12.9430    5.9610    3.6900 H         1 DAP1        0.0000
     64 C218      -11.9220    4.1050    3.2430 C.3       1 DAP1        0.0000
     65 H18R      -10.9110    4.5090    3.4760 H         1 DAP1        0.0000
     66 H18S      -11.8170    3.4000    2.3880 H         1 DAP1        0.0000
     67 C219      -12.4500    3.3390    4.4640 C.3       1 DAP1        0.0000
     68 H19R      -13.4640    2.9440    4.2270 H         1 DAP1        0.0000
     69 H19S      -12.5590    4.0510    5.3140 H         1 DAP1        0.0000
     70 C220      -11.5470    2.1790    4.8930 C.3       1 DAP1        0.0000
     71 H20R      -10.5340    2.5520    5.1600 H         1 DAP1        0.0000
     72 H20S      -11.4430    1.4410    4.0700 H         1 DAP1        0.0000
     73 H20T      -11.9730    1.6600    5.7780 H         1 DAP1        0.0000
     74 C33        -6.9350   -2.8480    0.3890 C.3       1 DAP1        0.0000
     75 H3X        -7.2070   -2.0940    1.1640 H         1 DAP1        0.0000
     76 H3Y        -6.4420   -3.7030    0.9090 H         1 DAP1        0.0000
     77 C34        -8.2150   -3.3440   -0.3080 C.3       1 DAP1        0.0000
     78 H4X        -7.9280   -4.0810   -1.0910 H         1 DAP1        0.0000
     79 H4Y        -8.6920   -2.4820   -0.8280 H         1 DAP1        0.0000
     80 C35        -9.1790   -3.9650    0.6700 C.2       1 DAP1        0.0000
     81 H5X        -8.8500   -3.9790    1.7210 H         1 DAP1        0.0000
     82 C36       -10.3760   -4.4880    0.3480 C.2       1 DAP1        0.0000
     83 H6X       -10.9980   -4.9180    1.1500 H         1 DAP1        0.0000
     84 C37       -10.9450   -4.5340   -1.0500 C.3       1 DAP1        0.0000
     85 H7X       -10.2400   -5.0820   -1.7150 H         1 DAP1        0.0000
     86 H7Y       -11.0040   -3.4990   -1.4560 H         1 DAP1        0.0000
     87 C38       -12.3090   -5.1770   -1.1390 C.2       1 DAP1        0.0000
     88 H8X       -12.7460   -5.5440   -0.1960 H         1 DAP1        0.0000
     89 C39       -13.0120   -5.3290   -2.2750 C.2       1 DAP1        0.0000
     90 H9X       -14.0000   -5.8150   -2.2200 H         1 DAP1        0.0000
     91 C310      -12.5540   -4.8820   -3.6440 C.3       1 DAP1        0.0000
     92 H10X      -11.5840   -5.3720   -3.8880 H         1 DAP1        0.0000
     93 H10Y      -12.3480   -3.7880   -3.6260 H         1 DAP1        0.0000
     94 C311      -13.5530   -5.1840   -4.7360 C.2       1 DAP1        0.0000
     95 H11X      -14.4850   -5.6840   -4.4230 H         1 DAP1        0.0000
     96 C312      -13.3910   -4.8910   -6.0380 C.2       1 DAP1        0.0000
     97 H12X      -14.1990   -5.1660   -6.7340 H         1 DAP1        0.0000
     98 C313      -12.1830   -4.2100   -6.6430 C.3       1 DAP1        0.0000
     99 H13X      -11.2700   -4.8060   -6.4170 H         1 DAP1        0.0000
    100 H13Y      -12.0320   -3.2210   -6.1550 H         1 DAP1        0.0000
    101 C314      -12.3100   -4.0240   -8.1380 C.2       1 DAP1        0.0000
    102 H14X      -13.2420   -4.3970   -8.5940 H         1 DAP1        0.0000
    103 C315      -11.3970   -3.4500   -8.9420 C.2       1 DAP1        0.0000
    104 H15X      -11.6130   -3.3770  -10.0190 H         1 DAP1        0.0000
    105 C316      -10.0680   -2.8820   -8.5080 C.3       1 DAP1        0.0000
    106 H16X       -9.4480   -3.6710   -8.0250 H         1 DAP1        0.0000
    107 H16Y      -10.2190   -2.0700   -7.7610 H         1 DAP1        0.0000
    108 C317       -9.2850   -2.3070   -9.7050 C.3       1 DAP1        0.0000
    109 H17X       -9.8850   -1.5060  -10.1940 H         1 DAP1        0.0000
    110 H17Y       -9.1130   -3.1100  -10.4580 H         1 DAP1        0.0000
    111 C318       -7.9230   -1.7150   -9.3180 C.3       1 DAP1        0.0000
    112 H18X       -7.3020   -2.4980   -8.8340 H         1 DAP1        0.0000
    113 H18Y       -8.0700   -0.9050   -8.5720 H         1 DAP1        0.0000
    114 C319       -7.1720   -1.1530  -10.5320 C.3       1 DAP1        0.0000
    115 H19X       -7.8060   -0.3740  -11.0130 H         1 DAP1        0.0000
    116 H19Y       -7.0370   -1.9710  -11.2760 H         1 DAP1        0.0000
    117 C320       -5.8080   -0.5530  -10.1870 C.3       1 DAP1        0.0000
    118 H20X       -5.1460   -1.3190   -9.7320 H         1 DAP1        0.0000
    119 H20Y       -5.9190    0.2860   -9.4670 H         1 DAP1        0.0000
    120 H20Z       -5.3130   -0.1630  -11.1010 H         1 DAP1        0.0000
@<TRIPOS>BOND
     1  116  114 1 
     2  120  117 1 
     3  115  114 1 
     4  114  117 1 
     5  114  111 1 
     6  110  108 1 
     7  109  108 1 
     8  117  118 1 
     9  117  119 1 
    10  104  103 1 
    11  108  111 1 
    12  108  105 1 
    13  111  112 1 
    14  111  113 1 
    15  103  105 1 
    16  103  101 2 
    17  102  101 1 
    18  105  106 1 
    19  105  107 1 
    20  101   98 1 
    21   97   96 1 
    22   98   99 1 
    23   98  100 1 
    24   98   96 1 
    25   96   94 2 
    26   36   35 1 
    27   41   40 1 
    28   34   33 1 
    29   35   33 2 
    30   35   37 1 
    31   33   30 1 
    32   40   42 2 
    33   40   37 1 
    34   43   42 1 
    35   94   95 1 
    36   94   91 1 
    37   28   27 1 
    38   39   37 1 
    39   42   44 1 
    40   37   38 1 
    41   92   91 1 
    42   32   30 1 
    43   30   27 1 
    44   30   31 1 
    45   27   29 1 
    46   27   15 1 
    47   91   93 1 
    48   91   89 1 
    49   48   47 1 
    50   14   13 2 
    51   46   44 1 
    52   44   47 1 
    53   44   45 1 
    54   47   49 2 
    55   17   15 1 
    56   13   15 1 
    57   13   12 1 
    58   15   16 1 
    59   89   90 1 
    60   89   87 2 
    61   11   10 1 
    62   49   50 1 
    63   49   51 1 
    64   85   84 1 
    65    8    7 1 
    66   12   10 1 
    67   86   84 1 
    68    3    1 2 
    69   25   24 1 
    70   10    7 1 
    71   10   18 1 
    72   53   51 1 
    73   87   84 1 
    74   87   88 1 
    75   26   24 1 
    76   78   77 1 
    77   84   82 1 
    78   79   77 1 
    79   21   18 1 
    80   21   22 1 
    81   51   52 1 
    82   51   54 1 
    83    7    9 1 
    84    7    6 1 
    85   24   22 1 
    86   24   74 1 
    87   77   74 1 
    88   77   80 1 
    89   18   20 1 
    90   18   19 1 
    91    1    6 1 
    92    1    4 1 
    93    1    2 1 
    94   55   54 1 
    95   22   23 2 
    96   54   56 2 
    97    5    4 1 
    98   82   80 2 
    99   82   83 1 
   100   74   76 1 
   101   74   75 1 
   102   80   81 1 
   103   60   58 1 
   104   56   58 1 
   105   56   57 1 
   106   58   59 1 
   107   58   61 1 
   108   66   64 1 
   109   62   61 1 
   110   61   64 1 
   111   61   63 1 
   112   64   65 1 
   113   64   67 1 
   114   72   70 1 
   115   68   67 1 
   116   67   70 1 
   117   67   69 1 
   118   70   71 1 
   119   70   73 1 
