@<TRIPOS>MOLECULE
C:\Users\Praveer\PycharmProjects\pdb_to_mol2_converter\data\pdb\dapc.pdb
  138   137     0     0     0
SMALL
GASTEIGER

@<TRIPOS>ATOM
      1 N           1.4940    0.0020   -0.0090 N.4       1 DAP1        0.0000
      2 C12         1.9930    1.4460   -0.0110 C.3       1 DAP1        0.0000
      3 H12A        3.0710    1.4630   -0.0680 H         1 DAP1        0.0000
      4 H12B        1.7350    1.9170    0.9430 H         1 DAP1        0.0000
      5 C13        -0.0060   -0.0090   -0.0030 C.3       1 DAP1        0.0000
      6 H13A       -0.3770    0.5930   -0.8350 H         1 DAP1        0.0000
      7 H13B       -0.4050    0.5250    0.8650 H         1 DAP1        0.0000
      8 H13C       -0.4330   -0.9940   -0.0420 H         1 DAP1        0.0000
      9 C14         1.9770   -0.6980    1.2250 C.3       1 DAP1        0.0000
     10 H14A        1.6050   -0.1860    2.1080 H         1 DAP1        0.0000
     11 H14B        3.0570   -0.7160    1.2740 H         1 DAP1        0.0000
     12 H14C        1.6090   -1.7150    1.2580 H         1 DAP1        0.0000
     13 C15         1.9680   -0.7100   -1.2370 C.3       1 DAP1        0.0000
     14 H15A        3.0480   -0.7320   -1.2870 H         1 DAP1        0.0000
     15 H15B        1.5980   -0.1920   -2.1170 H         1 DAP1        0.0000
     16 H15C        1.5940   -1.7240   -1.2650 H         1 DAP1        0.0000
     17 C11         1.4260    2.4190   -1.0830 C.3       1 DAP1        0.0000
     18 H11A        1.5390    1.9780   -2.0970 H         1 DAP1        0.0000
     19 H11B        2.0250    3.3610   -1.0720 H         1 DAP1        0.0000
     20 P          -0.3860    3.3550    0.5410 P.3       1 DAP1        0.0000
     21 O13         0.8360    3.6750    1.3110 O.3       1 DAP1        0.0000
     22 O14        -1.3240    2.3940    1.1580 O.2       1 DAP1        0.0000
     23 O12         0.0510    2.7240   -0.8570 O.3       1 DAP1        0.0000
     24 O11        -1.1410    4.6750    0.1220 O.3       1 DAP1        0.0000
     25 C1         -1.9110    4.7420   -1.0780 C.3       1 DAP1        0.0000
     26 HA         -2.3100    3.7500   -1.4000 H         1 DAP1        0.0000
     27 HB         -1.2660    5.1390   -1.8940 H         1 DAP1        0.0000
     28 C2         -3.1090    5.7090   -0.8860 C.3       1 DAP1        0.0000
     29 HS         -3.9340    5.1620   -0.3720 H         1 DAP1        0.0000
     30 O21        -3.5320    6.2410   -2.1560 O.3       1 DAP1        0.0000
     31 C21        -4.2270    5.4030   -2.9030 C.2       1 DAP1        0.0000
     32 O22        -4.5370    4.2630   -2.6140 O.2       1 DAP1        0.0000
     33 C22        -4.6080    6.1240   -4.1960 C.3       1 DAP1        0.0000
     34 H2R        -3.6760    6.4810   -4.6790 H         1 DAP1        0.0000
     35 H2S        -5.2240    7.0050   -3.9190 H         1 DAP1        0.0000
     36 C3         -2.7320    6.9040    0.0330 C.3       1 DAP1        0.0000
     37 HX         -1.8780    7.4250   -0.4630 H         1 DAP1        0.0000
     38 HY         -2.3820    6.5120    1.0140 H         1 DAP1        0.0000
     39 O31        -3.8740    7.7690    0.2300 O.3       1 DAP1        0.0000
     40 C31        -3.5630    9.0100    0.5770 C.2       1 DAP1        0.0000
     41 O32        -2.4410    9.4390    0.7670 O.2       1 DAP1        0.0000
     42 C32        -4.8500    9.8250    0.6970 C.3       1 DAP1        0.0000
     43 H2X        -5.4960    9.3410    1.4570 H         1 DAP1        0.0000
     44 H2Y        -5.3670    9.7930   -0.2840 H         1 DAP1        0.0000
     45 C23        -5.3980    5.2290   -5.1760 C.3       1 DAP1        0.0000
     46 H3R        -6.3090    4.8360   -4.6670 H         1 DAP1        0.0000
     47 H3S        -4.7680    4.3550   -5.4640 H         1 DAP1        0.0000
     48 C24        -5.8120    6.0090   -6.4370 C.3       1 DAP1        0.0000
     49 H4R        -4.8930    6.4200   -6.9130 H         1 DAP1        0.0000
     50 H4S        -6.4370    6.8760   -6.1240 H         1 DAP1        0.0000
     51 C25        -6.5660    5.1480   -7.4160 C.2       1 DAP1        0.0000
     52 H5R        -6.7140    4.0990   -7.1140 H         1 DAP1        0.0000
     53 C26        -7.0540    5.5680   -8.5960 C.2       1 DAP1        0.0000
     54 H6R        -7.5890    4.8400   -9.2260 H         1 DAP1        0.0000
     55 C27        -6.9300    6.9740   -9.1420 C.3       1 DAP1        0.0000
     56 H7R        -5.8540    7.2530   -9.2070 H         1 DAP1        0.0000
     57 H7S        -7.3890    7.6920   -8.4260 H         1 DAP1        0.0000
     58 C28        -7.5730    7.1420  -10.4990 C.2       1 DAP1        0.0000
     59 H8R        -8.0440    6.2420  -10.9260 H         1 DAP1        0.0000
     60 C29        -7.6190    8.2760  -11.2210 C.2       1 DAP1        0.0000
     61 H9R        -8.1270    8.2380  -12.1980 H         1 DAP1        0.0000
     62 C210       -7.0390    9.6180  -10.8270 C.3       1 DAP1        0.0000
     63 H10R       -5.9460    9.5120  -10.6440 H         1 DAP1        0.0000
     64 H10S       -7.4850    9.9470   -9.8610 H         1 DAP1        0.0000
     65 C211       -7.2760   10.6780  -11.8800 C.2       1 DAP1        0.0000
     66 H11R       -7.8250   10.3500  -12.7770 H         1 DAP1        0.0000
     67 C212       -6.8850   11.9650  -11.8290 C.2       1 DAP1        0.0000
     68 H12R       -7.1390   12.6100  -12.6860 H         1 DAP1        0.0000
     69 C213       -6.1240   12.6310  -10.7050 C.3       1 DAP1        0.0000
     70 H13R       -5.1620   12.0970  -10.5400 H         1 DAP1        0.0000
     71 H13S       -6.6990   12.5310   -9.7570 H         1 DAP1        0.0000
     72 C214       -5.8490   14.0950  -10.9750 C.2       1 DAP1        0.0000
     73 H14R       -6.2230   14.4940  -11.9320 H         1 DAP1        0.0000
     74 C215       -5.1950   14.9350  -10.1540 C.2       1 DAP1        0.0000
     75 H15R       -5.0560   15.9830  -10.4640 H         1 DAP1        0.0000
     76 C216       -4.6130   14.5770   -8.8110 C.3       1 DAP1        0.0000
     77 H16R       -3.8590   13.7650   -8.9180 H         1 DAP1        0.0000
     78 H16S       -5.4090   14.2040   -8.1300 H         1 DAP1        0.0000
     79 C217       -3.9340   15.7940   -8.1530 C.3       1 DAP1        0.0000
     80 H17R       -4.6780   16.6130   -8.0240 H         1 DAP1        0.0000
     81 H17S       -3.1220   16.1720   -8.8160 H         1 DAP1        0.0000
     82 C218       -3.3260   15.4730   -6.7800 C.3       1 DAP1        0.0000
     83 H18R       -2.5740   14.6610   -6.8930 H         1 DAP1        0.0000
     84 H18S       -4.1270   15.1010   -6.1030 H         1 DAP1        0.0000
     85 C219       -2.6530   16.6930   -6.1350 C.3       1 DAP1        0.0000
     86 H19R       -3.4080   17.5050   -6.0290 H         1 DAP1        0.0000
     87 H19S       -1.8560   17.0660   -6.8180 H         1 DAP1        0.0000
     88 C220       -2.0410   16.3940   -4.7640 C.3       1 DAP1        0.0000
     89 H20R       -1.2650   15.6020   -4.8500 H         1 DAP1        0.0000
     90 H20S       -2.8230   16.0430   -4.0570 H         1 DAP1        0.0000
     91 H20T       -1.5670   17.3050   -4.3400 H         1 DAP1        0.0000
     92 C33        -4.5660   11.2900    1.0960 C.3       1 DAP1        0.0000
     93 H3X        -3.8990   11.7540    0.3330 H         1 DAP1        0.0000
     94 H3Y        -4.0240   11.3040    2.0710 H         1 DAP1        0.0000
     95 C34        -5.8560   12.1190    1.2180 C.3       1 DAP1        0.0000
     96 H4X        -6.5160   11.6370    1.9740 H         1 DAP1        0.0000
     97 H4Y        -6.3920   12.0860    0.2420 H         1 DAP1        0.0000
     98 C35        -5.5620   13.5440    1.6080 C.2       1 DAP1        0.0000
     99 H5X        -4.4980   13.7920    1.7490 H         1 DAP1        0.0000
    100 C36        -6.4930   14.4960    1.7900 C.2       1 DAP1        0.0000
    101 H6X        -6.1660   15.5090    2.0770 H         1 DAP1        0.0000
    102 C37        -7.9800   14.2790    1.6290 C.3       1 DAP1        0.0000
    103 H7X        -8.3050   13.4640    2.3140 H         1 DAP1        0.0000
    104 H7Y        -8.1850   13.9110    0.5980 H         1 DAP1        0.0000
    105 C38        -8.8180   15.5070    1.8910 C.2       1 DAP1        0.0000
    106 H8X        -8.2730   16.4240    2.1690 H         1 DAP1        0.0000
    107 C39       -10.1610   15.5560    1.8090 C.2       1 DAP1        0.0000
    108 H9X       -10.6640   16.5120    2.0230 H         1 DAP1        0.0000
    109 C310      -11.0540   14.3910    1.4420 C.3       1 DAP1        0.0000
    110 H10X      -10.8810   13.5560    2.1570 H         1 DAP1        0.0000
    111 H10Y      -10.7590   14.0040    0.4410 H         1 DAP1        0.0000
    112 C311      -12.5260   14.7360    1.4270 C.2       1 DAP1        0.0000
    113 H11X      -12.7830   15.7780    1.6800 H         1 DAP1        0.0000
    114 C312      -13.5300   13.8880    1.1360 C.2       1 DAP1        0.0000
    115 H12X      -14.5610   14.2760    1.1640 H         1 DAP1        0.0000
    116 C313      -13.3770   12.4290    0.7670 C.3       1 DAP1        0.0000
    117 H13X      -12.8470   11.8950    1.5870 H         1 DAP1        0.0000
    118 H13Y      -12.7230   12.3420   -0.1290 H         1 DAP1        0.0000
    119 C314      -14.6930   11.7370    0.4930 C.2       1 DAP1        0.0000
    120 H14X      -15.6010   12.3540    0.5890 H         1 DAP1        0.0000
    121 C315      -14.8400   10.4470    0.1460 C.2       1 DAP1        0.0000
    122 H15X      -15.8540   10.0540   -0.0290 H         1 DAP1        0.0000
    123 C316      -13.7290    9.4450   -0.0360 C.3       1 DAP1        0.0000
    124 H16X      -13.1450    9.3290    0.9040 H         1 DAP1        0.0000
    125 H16Y      -13.0220    9.7800   -0.8280 H         1 DAP1        0.0000
    126 C317      -14.3010    8.0700   -0.4350 C.3       1 DAP1        0.0000
    127 H17X      -14.8780    8.1710   -1.3820 H         1 DAP1        0.0000
    128 H17Y      -15.0010    7.7180    0.3570 H         1 DAP1        0.0000
    129 C318      -13.2170    6.9990   -0.6370 C.3       1 DAP1        0.0000
    130 H18X      -12.6380    6.8860    0.3070 H         1 DAP1        0.0000
    131 H18Y      -12.5150    7.3390   -1.4320 H         1 DAP1        0.0000
    132 C319      -13.8020    5.6350   -1.0340 C.3       1 DAP1        0.0000
    133 H19X      -14.3850    5.7590   -1.9760 H         1 DAP1        0.0000
    134 H19Y      -14.5080    5.3060   -0.2360 H         1 DAP1        0.0000
    135 C320      -12.7520    4.5400   -1.2450 C.3       1 DAP1        0.0000
    136 H20X      -12.1710    4.3780   -0.3110 H         1 DAP1        0.0000
    137 H20Y      -12.0480    4.8320   -2.0540 H         1 DAP1        0.0000
    138 H20Z      -13.2390    3.5810   -1.5290 H         1 DAP1        0.0000
@<TRIPOS>BOND
     1   66   65 1 
     2   68   67 1 
     3   61   60 1 
     4   73   72 1 
     5   65   67 2 
     6   65   62 1 
     7   67   69 1 
     8   60   62 1 
     9   60   58 2 
    10   72   69 1 
    11   72   74 2 
    12   59   58 1 
    13   62   63 1 
    14   62   64 1 
    15   69   70 1 
    16   69   71 1 
    17   58   55 1 
    18   75   74 1 
    19   74   76 1 
    20   54   53 1 
    21   56   55 1 
    22   55   53 1 
    23   55   57 1 
    24   77   76 1 
    25   81   79 1 
    26   76   79 1 
    27   76   78 1 
    28   53   51 2 
    29   79   80 1 
    30   79   82 1 
    31   51   52 1 
    32   51   48 1 
    33   49   48 1 
    34   83   82 1 
    35   87   85 1 
    36   82   85 1 
    37   82   84 1 
    38   48   50 1 
    39   48   45 1 
    40   85   86 1 
    41   85   88 1 
    42   47   45 1 
    43   45   46 1 
    44   45   33 1 
    45   89   88 1 
    46   88   91 1 
    47   88   90 1 
    48   34   33 1 
    49   33   35 1 
    50   33   31 1 
    51   31   32 2 
    52   31   30 1 
    53   30   28 1 
    54   15   13 1 
    55   18   17 1 
    56  137  135 1 
    57  133  132 1 
    58   27   25 1 
    59  138  135 1 
    60  131  129 1 
    61   26   25 1 
    62  127  126 1 
    63   14   13 1 
    64   16   13 1 
    65  135  132 1 
    66  135  136 1 
    67   13    1 1 
    68   17   19 1 
    69   17   23 1 
    70   17    2 1 
    71   25   28 1 
    72   25   24 1 
    73  132  129 1 
    74  132  134 1 
    75   28   29 1 
    76   28   36 1 
    77   23   20 1 
    78    6    5 1 
    79  125  123 1 
    80  129  126 1 
    81  129  130 1 
    82   37   36 1 
    83  126  123 1 
    84  126  128 1 
    85   44   42 1 
    86  118  116 1 
    87    3    2 1 
    88    8    5 1 
    89  123  121 1 
    90  123  124 1 
    91  122  121 1 
    92    2    1 1 
    93    2    4 1 
    94    1    5 1 
    95    1    9 1 
    96    5    7 1 
    97   36   39 1 
    98   36   38 1 
    99   24   20 1 
   100  121  119 2 
   101   39   40 1 
   102   97   95 1 
   103   93   92 1 
   104  111  109 1 
   105  119  120 1 
   106  119  116 1 
   107   20   22 2 
   108   20   21 1 
   109   40   42 1 
   110   40   41 2 
   111  104  102 1 
   112   42   92 1 
   113   42   43 1 
   114  116  114 1 
   115  116  117 1 
   116   92   95 1 
   117   92   94 1 
   118  114  115 1 
   119  114  112 2 
   120   95   98 1 
   121   95   96 1 
   122    9   12 1 
   123    9   11 1 
   124    9   10 1 
   125  112  109 1 
   126  112  113 1 
   127  109  107 1 
   128  109  110 1 
   129   98   99 1 
   130   98  100 2 
   131  102  100 1 
   132  102  105 1 
   133  102  103 1 
   134  100  101 1 
   135  107  105 2 
   136  107  108 1 
   137  105  106 1 
