@<TRIPOS>MOLECULE
C:\Users\Praveer\PycharmProjects\pdb_to_mol2_converter\data\pdb\dape.pdb
  129   128     0     0     0
SMALL
GASTEIGER

@<TRIPOS>ATOM
      1 N           1.2040    0.0690   -0.4820 N.4       1 DAP1        0.0000
      2 HN1         0.1920   -0.0350   -0.2870 H         1 DAP1        0.0000
      3 HN2         1.7480   -0.7720   -0.2160 H         1 DAP1        0.0000
      4 HN3         1.3140    0.1890   -1.5340 H         1 DAP1        0.0000
      5 C12         1.7910    1.3300    0.1110 C.3       1 DAP1        0.0000
      6 H12A        1.7030    1.2760    1.2150 H         1 DAP1        0.0000
      7 H12B        1.1780    2.1830   -0.2560 H         1 DAP1        0.0000
      8 C11         3.2680    1.5340   -0.3220 C.3       1 DAP1        0.0000
      9 H11A        3.9110    0.8970    0.3280 H         1 DAP1        0.0000
     10 H11B        3.5600    2.5920   -0.1240 H         1 DAP1        0.0000
     11 P           2.6580    1.7900   -2.8570 P.3       1 DAP1        0.0000
     12 O13         2.2260    3.1370   -2.4450 O.3       1 DAP1        0.0000
     13 O14         1.5920    0.7710   -3.0110 O.2       1 DAP1        0.0000
     14 O12         3.5490    1.1980   -1.6870 O.3       1 DAP1        0.0000
     15 O11         3.6010    1.8390   -4.1200 O.3       1 DAP1        0.0000
     16 C1          4.8350    1.1270   -4.1620 C.3       1 DAP1        0.0000
     17 HA          4.6780    0.0390   -3.9750 H         1 DAP1        0.0000
     18 HB          5.5410    1.5250   -3.3960 H         1 DAP1        0.0000
     19 C2          5.4850    1.3120   -5.5580 C.3       1 DAP1        0.0000
     20 HS          4.8670    0.7650   -6.3110 H         1 DAP1        0.0000
     21 O21         6.8470    0.8440   -5.5530 O.3       1 DAP1        0.0000
     22 C21         6.9910   -0.4660   -5.6180 C.2       1 DAP1        0.0000
     23 O22         6.0970   -1.2910   -5.6380 O.2       1 DAP1        0.0000
     24 C22         8.4860   -0.7740   -5.7120 C.3       1 DAP1        0.0000
     25 H2R         8.9950   -0.2800   -4.8590 H         1 DAP1        0.0000
     26 H2S         8.8590   -0.3240   -6.6560 H         1 DAP1        0.0000
     27 C3          5.4930    2.8050   -5.9880 C.3       1 DAP1        0.0000
     28 HX          6.1200    3.3470   -5.2400 H         1 DAP1        0.0000
     29 HY          4.4560    3.2050   -5.9330 H         1 DAP1        0.0000
     30 O31         6.0040    2.9390   -7.3350 O.3       1 DAP1        0.0000
     31 C31         6.4490    4.1520   -7.6330 C.2       1 DAP1        0.0000
     32 O32         6.4420    5.1170   -6.8910 O.2       1 DAP1        0.0000
     33 C32         6.9770    4.1460   -9.0690 C.3       1 DAP1        0.0000
     34 H2X         6.1430    3.8520   -9.7380 H         1 DAP1        0.0000
     35 H2Y         7.7740    3.3780   -9.1360 H         1 DAP1        0.0000
     36 C23         8.7940   -2.2880   -5.7060 C.3       1 DAP1        0.0000
     37 H3R         8.2400   -2.7820   -6.5370 H         1 DAP1        0.0000
     38 H3S         8.4320   -2.7310   -4.7490 H         1 DAP1        0.0000
     39 C24        10.3010   -2.5590   -5.8650 C.3       1 DAP1        0.0000
     40 H4R        10.8420   -2.0310   -5.0480 H         1 DAP1        0.0000
     41 H4S        10.6390   -2.1110   -6.8270 H         1 DAP1        0.0000
     42 C25        10.6200   -4.0310   -5.8350 C.2       1 DAP1        0.0000
     43 H5R         9.7570   -4.7020   -5.7070 H         1 DAP1        0.0000
     44 C26        11.8520   -4.5560   -5.9500 C.2       1 DAP1        0.0000
     45 H6R        11.9580   -5.6530   -5.9110 H         1 DAP1        0.0000
     46 C27        13.1270   -3.7610   -6.1310 C.3       1 DAP1        0.0000
     47 H7R        13.2430   -3.0490   -5.2830 H         1 DAP1        0.0000
     48 H7S        13.0470   -3.1370   -7.0490 H         1 DAP1        0.0000
     49 C28        14.3590   -4.6310   -6.2240 C.2       1 DAP1        0.0000
     50 H8R        14.1890   -5.7170   -6.1480 H         1 DAP1        0.0000
     51 C29        15.6240   -4.2050   -6.3880 C.2       1 DAP1        0.0000
     52 H9R        16.4170   -4.9700   -6.4380 H         1 DAP1        0.0000
     53 C210       16.0850   -2.7680   -6.5140 C.3       1 DAP1        0.0000
     54 H10R       15.7720   -2.1960   -5.6120 H         1 DAP1        0.0000
     55 H10S       15.5740   -2.2870   -7.3790 H         1 DAP1        0.0000
     56 C211       17.5840   -2.6620   -6.6880 C.2       1 DAP1        0.0000
     57 H11R       18.1360   -3.6150   -6.7010 H         1 DAP1        0.0000
     58 C212       18.2990   -1.5300   -6.8270 C.2       1 DAP1        0.0000
     59 H12R       19.3900   -1.6280   -6.9450 H         1 DAP1        0.0000
     60 C213       17.7580   -0.1190   -6.8390 C.3       1 DAP1        0.0000
     61 H13R       17.2090    0.0760   -5.8900 H         1 DAP1        0.0000
     62 H13S       17.0090   -0.0150   -7.6560 H         1 DAP1        0.0000
     63 C214       18.8460    0.9190   -7.0160 C.2       1 DAP1        0.0000
     64 H14R       19.8750    0.5370   -7.1110 H         1 DAP1        0.0000
     65 C215       18.6610    2.2490   -7.0640 C.2       1 DAP1        0.0000
     66 H15R       19.5350    2.9050   -7.1970 H         1 DAP1        0.0000
     67 C216       17.3360    2.9580   -6.9520 C.3       1 DAP1        0.0000
     68 H16R       16.8470    2.7180   -5.9810 H         1 DAP1        0.0000
     69 H16S       16.6470    2.6260   -7.7610 H         1 DAP1        0.0000
     70 C217       17.5100    4.4850   -7.0500 C.3       1 DAP1        0.0000
     71 H17R       17.9830    4.7460   -8.0240 H         1 DAP1        0.0000
     72 H17S       18.1840    4.8380   -6.2370 H         1 DAP1        0.0000
     73 C218       16.1780    5.2410   -6.9400 C.3       1 DAP1        0.0000
     74 H18R       15.6970    4.9930   -5.9670 H         1 DAP1        0.0000
     75 H18S       15.4970    4.9010   -7.7510 H         1 DAP1        0.0000
     76 C219       16.3540    6.7620   -7.0380 C.3       1 DAP1        0.0000
     77 H19R       16.8420    7.0050   -8.0100 H         1 DAP1        0.0000
     78 H19S       17.0420    7.0970   -6.2280 H         1 DAP1        0.0000
     79 C220       15.0360    7.5330   -6.9300 C.3       1 DAP1        0.0000
     80 H20R       14.5440    7.3250   -5.9560 H         1 DAP1        0.0000
     81 H20S       14.3430    7.2330   -7.7450 H         1 DAP1        0.0000
     82 H20T       15.2150    8.6270   -7.0070 H         1 DAP1        0.0000
     83 C33         7.5360    5.5230   -9.4970 C.3       1 DAP1        0.0000
     84 H3X         8.3570    5.8160   -8.8020 H         1 DAP1        0.0000
     85 H3Y         6.7290    6.2880   -9.4090 H         1 DAP1        0.0000
     86 C34         8.0700    5.5090  -10.9410 C.3       1 DAP1        0.0000
     87 H4X         7.2420    5.2040  -11.6210 H         1 DAP1        0.0000
     88 H4Y         8.8630    4.7310  -11.0170 H         1 DAP1        0.0000
     89 C35         8.6150    6.8530  -11.3500 C.2       1 DAP1        0.0000
     90 H5X         8.5590    7.6430  -10.5840 H         1 DAP1        0.0000
     91 C36         9.1460    7.1370  -12.5520 C.2       1 DAP1        0.0000
     92 H6X         9.5140    8.1590  -12.7380 H         1 DAP1        0.0000
     93 C37         9.2820    6.1500  -13.6870 C.3       1 DAP1        0.0000
     94 H7X         8.2760    5.7460  -13.9430 H         1 DAP1        0.0000
     95 H7Y         9.8830    5.2780  -13.3440 H         1 DAP1        0.0000
     96 C38         9.9140    6.7270  -14.9320 C.2       1 DAP1        0.0000
     97 H8X        10.2070    7.7890  -14.8890 H         1 DAP1        0.0000
     98 C39        10.1380    6.0430  -16.0680 C.2       1 DAP1        0.0000
     99 H9X        10.6070    6.5700  -16.9150 H         1 DAP1        0.0000
    100 C310        9.7950    4.5860  -16.2860 C.3       1 DAP1        0.0000
    101 H10X        8.7050    4.4360  -16.1170 H         1 DAP1        0.0000
    102 H10Y       10.3120    3.9690  -15.5170 H         1 DAP1        0.0000
    103 C311       10.1600    4.0780  -17.6610 C.2       1 DAP1        0.0000
    104 H11X       10.6270    4.8070  -18.3430 H         1 DAP1        0.0000
    105 C312        9.9610    2.8250  -18.1080 C.2       1 DAP1        0.0000
    106 H12X       10.2750    2.5850  -19.1360 H         1 DAP1        0.0000
    107 C313        9.3370    1.6960  -17.3180 C.3       1 DAP1        0.0000
    108 H13X        8.3170    1.9960  -16.9880 H         1 DAP1        0.0000
    109 H13Y        9.9240    1.5280  -16.3870 H         1 DAP1        0.0000
    110 C314        9.2520    0.4030  -18.0980 C.2       1 DAP1        0.0000
    111 H14X        9.6440    0.4280  -19.1270 H         1 DAP1        0.0000
    112 C315        8.7450   -0.7560  -17.6430 C.2       1 DAP1        0.0000
    113 H15X        8.7400   -1.6320  -18.3110 H         1 DAP1        0.0000
    114 C316        8.1640   -0.9950  -16.2720 C.3       1 DAP1        0.0000
    115 H16X        7.3010   -0.3160  -16.0900 H         1 DAP1        0.0000
    116 H16Y        8.9230   -0.7890  -15.4840 H         1 DAP1        0.0000
    117 C317        7.6850   -2.4530  -16.1290 C.3       1 DAP1        0.0000
    118 H17X        8.5430   -3.1450  -16.2960 H         1 DAP1        0.0000
    119 H17Y        6.9140   -2.6700  -16.9030 H         1 DAP1        0.0000
    120 C318        7.0810   -2.7610  -14.7500 C.3       1 DAP1        0.0000
    121 H18X        6.2180   -2.0840  -14.5680 H         1 DAP1        0.0000
    122 H18Y        7.8400   -2.5570  -13.9630 H         1 DAP1        0.0000
    123 C319        6.6130   -4.2190  -14.6340 C.3       1 DAP1        0.0000
    124 H19X        7.4800   -4.8890  -14.8280 H         1 DAP1        0.0000
    125 H19Y        5.8620   -4.4170  -15.4320 H         1 DAP1        0.0000
    126 C320        6.0040   -4.5640  -13.2710 C.3       1 DAP1        0.0000
    127 H20X        5.1130   -3.9310  -13.0680 H         1 DAP1        0.0000
    128 H20Y        6.7460   -4.4070  -12.4590 H         1 DAP1        0.0000
    129 H20Z        5.6850   -5.6280  -13.2500 H         1 DAP1        0.0000
@<TRIPOS>BOND
     1  106  105 1 
     2  111  110 1 
     3  104  103 1 
     4  113  112 1 
     5  105  103 2 
     6  105  107 1 
     7  110  112 2 
     8  110  107 1 
     9  103  100 1 
    10  112  114 1 
    11  107  108 1 
    12  107  109 1 
    13   99   98 1 
    14  119  117 1 
    15  118  117 1 
    16  100  101 1 
    17  100   98 1 
    18  100  102 1 
    19  114  117 1 
    20  114  115 1 
    21  114  116 1 
    22  117  120 1 
    23   98   96 2 
    24  125  123 1 
    25   96   97 1 
    26   96   93 1 
    27  124  123 1 
    28  120  123 1 
    29  120  121 1 
    30  120  122 1 
    31  123  126 1 
    32   94   93 1 
    33   93   95 1 
    34   93   91 1 
    35  126  129 1 
    36  126  127 1 
    37  126  128 1 
    38   92   91 1 
    39   91   89 2 
    40   87   86 1 
    41   89   86 1 
    42   89   90 1 
    43   88   86 1 
    44   86   83 1 
    45   34   33 1 
    46   83   85 1 
    47   83   33 1 
    48   83   84 1 
    49   35   33 1 
    50   33   31 1 
    51   71   70 1 
    52   77   76 1 
    53   69   67 1 
    54   75   73 1 
    55   81   79 1 
    56   62   60 1 
    57   31   30 1 
    58   31   32 2 
    59   55   53 1 
    60   30   27 1 
    61   66   65 1 
    62   64   63 1 
    63   65   63 2 
    64   65   67 1 
    65   70   67 1 
    66   70   73 1 
    67   70   72 1 
    68   48   46 1 
    69   76   73 1 
    70   76   79 1 
    71   76   78 1 
    72   63   60 1 
    73   82   79 1 
    74   67   68 1 
    75   59   58 1 
    76   73   74 1 
    77   79   80 1 
    78   60   58 1 
    79   60   61 1 
    80   41   39 1 
    81   58   56 2 
    82   57   56 1 
    83   56   53 1 
    84   26   24 1 
    85   37   36 1 
    86   53   51 1 
    87   53   54 1 
    88   52   51 1 
    89   51   49 2 
    90   20   19 1 
    91   49   50 1 
    92   49   46 1 
    93   46   44 1 
    94   46   47 1 
    95   27   29 1 
    96   27   19 1 
    97   27   28 1 
    98   44   45 1 
    99   44   42 2 
   100   39   42 1 
   101   39   36 1 
   102   39   40 1 
   103   42   43 1 
   104   24   36 1 
   105   24   22 1 
   106   24   25 1 
   107   36   38 1 
   108   23   22 2 
   109   22   21 1 
   110   19   21 1 
   111   19   16 1 
   112   16   15 1 
   113   16   17 1 
   114   16   18 1 
   115   15   11 1 
   116   13   11 2 
   117   11   12 1 
   118   11   14 1 
   119   14    8 1 
   120    4    1 1 
   121    1    2 1 
   122    1    3 1 
   123    1    5 1 
   124    8   10 1 
   125    8    5 1 
   126    8    9 1 
   127    7    5 1 
   128    5    6 1 
