@<TRIPOS>MOLECULE
C:\Users\Praveer\PycharmProjects\pdb_to_mol2_converter\data\pdb\dapg.pdb
  131   130     0     0     0
SMALL
GASTEIGER

@<TRIPOS>ATOM
      1 C13        -0.1320    0.1280   -0.1870 C.3       1 DAP1        0.0000
      2 H13A       -0.3490    0.6950   -1.1160 H         1 DAP1        0.0000
      3 H13B       -0.5470   -0.8970   -0.3050 H         1 DAP1        0.0000
      4 OC3        -0.7990    0.7520    0.9150 O.3       1 DAP1        0.0000
      5 HO3        -0.1620    0.8140    1.6610 H         1 DAP1        0.0000
      6 C12         1.4070    0.0110   -0.0040 C.3       1 DAP1        0.0000
      7 H12A        1.5920   -0.5410    0.9440 H         1 DAP1        0.0000
      8 OC2         1.9480   -0.7870   -1.0550 O.3       1 DAP1        0.0000
      9 HO2         2.8650   -0.9300   -0.8030 H         1 DAP1        0.0000
     10 C11         2.1720    1.3740    0.0160 C.3       1 DAP1        0.0000
     11 H11A        1.8810    1.9240   -0.9070 H         1 DAP1        0.0000
     12 H11B        3.2680    1.1830   -0.0530 H         1 DAP1        0.0000
     13 P           2.1840    1.6250    2.5990 P.3       1 DAP1        0.0000
     14 O13         3.4410    0.8510    2.5520 O.2       1 DAP1        0.0000
     15 O14         0.9550    0.9100    3.0080 O.3       1 DAP1        0.0000
     16 O12         1.8990    2.2070    1.1520 O.3       1 DAP1        0.0000
     17 O11         2.3860    2.8940    3.5180 O.3       1 DAP1        0.0000
     18 C1          2.2430    4.2240    3.0380 C.3       1 DAP1        0.0000
     19 HA          1.2290    4.3910    2.6060 H         1 DAP1        0.0000
     20 HB          3.0040    4.4280    2.2500 H         1 DAP1        0.0000
     21 C2          2.4680    5.2110    4.2130 C.3       1 DAP1        0.0000
     22 HS          1.5500    5.2190    4.8480 H         1 DAP1        0.0000
     23 O21         2.7940    6.5230    3.7180 O.3       1 DAP1        0.0000
     24 C21         1.7630    7.2470    3.3290 C.2       1 DAP1        0.0000
     25 O22         0.5950    6.9070    3.3340 O.2       1 DAP1        0.0000
     26 C22         2.2820    8.6270    2.9190 C.3       1 DAP1        0.0000
     27 H2R         3.0950    8.4860    2.1780 H         1 DAP1        0.0000
     28 H2S         2.7100    9.1020    3.8270 H         1 DAP1        0.0000
     29 C3          3.6360    4.7470    5.1280 C.3       1 DAP1        0.0000
     30 HX          4.5510    4.7330    4.4890 H         1 DAP1        0.0000
     31 HY          3.4360    3.7090    5.4770 H         1 DAP1        0.0000
     32 O31         3.7700    5.6310    6.2660 O.3       1 DAP1        0.0000
     33 C31         4.9430    5.5430    6.8790 C.2       1 DAP1        0.0000
     34 O32         5.8610    4.8130    6.5630 O.2       1 DAP1        0.0000
     35 C32         4.9550    6.5130    8.0620 C.3       1 DAP1        0.0000
     36 H2X         4.1460    6.2110    8.7580 H         1 DAP1        0.0000
     37 H2Y         4.7330    7.5280    7.6760 H         1 DAP1        0.0000
     38 C23         1.1800    9.5360    2.3300 C.3       1 DAP1        0.0000
     39 H3R         0.3350    9.6100    3.0530 H         1 DAP1        0.0000
     40 H3S         0.7880    9.0710    1.3960 H         1 DAP1        0.0000
     41 C24         1.7130   10.9480    2.0260 C.3       1 DAP1        0.0000
     42 H4R         2.5800   10.8560    1.3340 H         1 DAP1        0.0000
     43 H4S         2.0930   11.3920    2.9740 H         1 DAP1        0.0000
     44 C25         0.6550   11.8330    1.4220 C.2       1 DAP1        0.0000
     45 H5R        -0.3310   11.3640    1.2720 H         1 DAP1        0.0000
     46 C26         0.8340   13.1170    1.0670 C.2       1 DAP1        0.0000
     47 H6R        -0.0180   13.6630    0.6320 H         1 DAP1        0.0000
     48 C27         2.1280   13.8870    1.2150 C.3       1 DAP1        0.0000
     49 H7R         2.9380   13.3590    0.6630 H         1 DAP1        0.0000
     50 H7S         2.4370   13.8890    2.2850 H         1 DAP1        0.0000
     51 C28         2.0330   15.3110    0.7200 C.2       1 DAP1        0.0000
     52 H8R         1.0550   15.6180    0.3170 H         1 DAP1        0.0000
     53 C29         3.0230   16.2220    0.7300 C.2       1 DAP1        0.0000
     54 H9R         2.7970   17.2240    0.3330 H         1 DAP1        0.0000
     55 C210        4.4340   16.0120    1.2360 C.3       1 DAP1        0.0000
     56 H10R        4.9090   15.1720    0.6810 H         1 DAP1        0.0000
     57 H10S        4.4050   15.7010    2.3050 H         1 DAP1        0.0000
     58 C211        5.2820   17.2570    1.0930 C.2       1 DAP1        0.0000
     59 H11R        4.7800   18.1320    0.6520 H         1 DAP1        0.0000
     60 C212        6.5720   17.3950    1.4480 C.2       1 DAP1        0.0000
     61 H12R        7.0460   18.3750    1.2750 H         1 DAP1        0.0000
     62 C213        7.4550   16.3360    2.0670 C.3       1 DAP1        0.0000
     63 H13R        7.5010   15.4500    1.3940 H         1 DAP1        0.0000
     64 H13S        6.9970   15.9790    3.0170 H         1 DAP1        0.0000
     65 C214        8.8570   16.8370    2.3390 C.2       1 DAP1        0.0000
     66 H14R        9.0640   17.8830    2.0620 H         1 DAP1        0.0000
     67 C215        9.8550   16.1200    2.8830 C.2       1 DAP1        0.0000
     68 H15R       10.8360   16.5990    3.0320 H         1 DAP1        0.0000
     69 C216        9.7690   14.6830    3.3250 C.3       1 DAP1        0.0000
     70 H16R        9.4910   14.0270    2.4700 H         1 DAP1        0.0000
     71 H16S        8.9840   14.5610    4.1060 H         1 DAP1        0.0000
     72 C217       11.1130   14.1990    3.9000 C.3       1 DAP1        0.0000
     73 H17R       11.4000   14.8340    4.7690 H         1 DAP1        0.0000
     74 H17S       11.9090   14.2980    3.1270 H         1 DAP1        0.0000
     75 C218       11.0640   12.7360    4.3630 C.3       1 DAP1        0.0000
     76 H18R       10.7830   12.0900    3.5010 H         1 DAP1        0.0000
     77 H18S       10.2750   12.6260    5.1400 H         1 DAP1        0.0000
     78 C219       12.4030   12.2540    4.9350 C.3       1 DAP1        0.0000
     79 H19R       12.6830   12.9070    5.7940 H         1 DAP1        0.0000
     80 H19S       13.1900   12.3720    4.1560 H         1 DAP1        0.0000
     81 C220       12.3710   10.7960    5.4010 C.3       1 DAP1        0.0000
     82 H20R       12.1160   10.1240    4.5540 H         1 DAP1        0.0000
     83 H20S       11.6070   10.6610    6.1980 H         1 DAP1        0.0000
     84 H20T       13.3600   10.4940    5.8070 H         1 DAP1        0.0000
     85 C33         6.3140    6.5110    8.7990 C.3       1 DAP1        0.0000
     86 H3X         7.1190    6.7950    8.0810 H         1 DAP1        0.0000
     87 H3Y         6.5330    5.4790    9.1600 H         1 DAP1        0.0000
     88 C34         6.3300    7.4810    9.9930 C.3       1 DAP1        0.0000
     89 H4X         5.5190    7.1880   10.6970 H         1 DAP1        0.0000
     90 H4Y         6.0890    8.5030    9.6210 H         1 DAP1        0.0000
     91 C35         7.6620    7.4820   10.6980 C.2       1 DAP1        0.0000
     92 H5X         8.4260    6.8060   10.2830 H         1 DAP1        0.0000
     93 C36         7.9580    8.2370   11.7690 C.2       1 DAP1        0.0000
     94 H6X         8.9650    8.1620   12.2110 H         1 DAP1        0.0000
     95 C37         6.9960    9.1980   12.4260 C.3       1 DAP1        0.0000
     96 H7X         6.0840    8.6420   12.7450 H         1 DAP1        0.0000
     97 H7Y         6.6500    9.9420   11.6740 H         1 DAP1        0.0000
     98 C38         7.5700    9.9280   13.6160 C.2       1 DAP1        0.0000
     99 H8X         8.6130    9.6950   13.8840 H         1 DAP1        0.0000
    100 C39         6.8990   10.8280   14.3560 C.2       1 DAP1        0.0000
    101 H9X         7.4180   11.3020   15.2050 H         1 DAP1        0.0000
    102 C310        5.4680   11.2520   14.1150 C.3       1 DAP1        0.0000
    103 H10X        4.8070   10.3560   14.1540 H         1 DAP1        0.0000
    104 H10Y        5.3720   11.6570   13.0820 H         1 DAP1        0.0000
    105 C311        4.9740   12.2810   15.1030 C.2       1 DAP1        0.0000
    106 H11X        5.6950   12.6020   15.8720 H         1 DAP1        0.0000
    107 C312        3.7450   12.8270   15.1180 C.2       1 DAP1        0.0000
    108 H12X        3.5190   13.5690   15.9000 H         1 DAP1        0.0000
    109 C313        2.6260   12.5140   14.1500 C.3       1 DAP1        0.0000
    110 H13X        2.4000   11.4240   14.1850 H         1 DAP1        0.0000
    111 H13Y        2.9660   12.7240   13.1110 H         1 DAP1        0.0000
    112 C314        1.3650   13.2990   14.4370 C.2       1 DAP1        0.0000
    113 H14X        1.4070   13.9890   15.2950 H         1 DAP1        0.0000
    114 C315        0.2160   13.2260   13.7420 C.2       1 DAP1        0.0000
    115 H15X       -0.6340   13.8530   14.0540 H         1 DAP1        0.0000
    116 C316       -0.0390   12.3480   12.5440 C.3       1 DAP1        0.0000
    117 H16X        0.1050   11.2760   12.8070 H         1 DAP1        0.0000
    118 H16Y        0.6750   12.5900   11.7240 H         1 DAP1        0.0000
    119 C317       -1.4740   12.5370   12.0160 C.3       1 DAP1        0.0000
    120 H17X       -1.6320   13.6030   11.7340 H         1 DAP1        0.0000
    121 H17Y       -2.2040   12.2860   12.8200 H         1 DAP1        0.0000
    122 C318       -1.7890   11.6650   10.7930 C.3       1 DAP1        0.0000
    123 H18X       -1.6440   10.5950   11.0580 H         1 DAP1        0.0000
    124 H18Y       -1.0740   11.9080    9.9760 H         1 DAP1        0.0000
    125 C319       -3.2240   11.8710   10.2860 C.3       1 DAP1        0.0000
    126 H19X       -3.3620   12.9460   10.0270 H         1 DAP1        0.0000
    127 H19Y       -3.9330   11.6300   11.1120 H         1 DAP1        0.0000
    128 C320       -3.5730   11.0160    9.0650 C.3       1 DAP1        0.0000
    129 H20X       -3.4730    9.9360    9.3050 H         1 DAP1        0.0000
    130 H20Y       -2.9000   11.2580    8.2150 H         1 DAP1        0.0000
    131 H20Z       -4.6200   11.2050    8.7440 H         1 DAP1        0.0000
@<TRIPOS>BOND
     1    2    1 1 
     2    8    9 1 
     3    8    6 1 
     4   11   10 1 
     5    3    1 1 
     6    1    6 1 
     7    1    4 1 
     8   12   10 1 
     9    6   10 1 
    10    6    7 1 
    11   10   16 1 
    12   52   51 1 
    13   54   53 1 
    14   47   46 1 
    15   59   58 1 
    16   49   48 1 
    17   56   55 1 
    18   51   53 2 
    19   51   48 1 
    20   53   55 1 
    21    4    5 1 
    22   46   48 1 
    23   46   44 2 
    24   58   55 1 
    25   58   60 2 
    26   16   13 1 
    27   48   50 1 
    28   55   57 1 
    29   45   44 1 
    30   61   60 1 
    31   42   41 1 
    32   63   62 1 
    33   40   38 1 
    34   44   41 1 
    35   60   62 1 
    36   41   38 1 
    37   41   43 1 
    38   66   65 1 
    39   62   65 1 
    40   62   64 1 
    41   27   26 1 
    42   20   18 1 
    43   38   26 1 
    44   38   39 1 
    45   65   67 2 
    46   70   69 1 
    47   14   13 2 
    48   13   15 1 
    49   13   17 1 
    50   19   18 1 
    51   67   68 1 
    52   67   69 1 
    53   26   24 1 
    54   26   28 1 
    55   18   17 1 
    56   18   21 1 
    57   74   72 1 
    58   69   72 1 
    59   69   71 1 
    60   24   25 2 
    61   24   23 1 
    62   76   75 1 
    63   23   21 1 
    64   72   75 1 
    65   72   73 1 
    66   80   78 1 
    67   21   22 1 
    68   21   29 1 
    69   75   78 1 
    70   75   77 1 
    71   30   29 1 
    72   82   81 1 
    73   78   81 1 
    74   78   79 1 
    75   29   31 1 
    76   29   32 1 
    77   81   84 1 
    78   81   83 1 
    79   32   33 1 
    80   34   33 2 
    81   33   35 1 
    82   37   35 1 
    83   35   36 1 
    84   35   85 1 
    85   86   85 1 
    86  130  128 1 
    87  131  128 1 
    88   85   87 1 
    89   85   88 1 
    90  128  129 1 
    91  128  125 1 
    92   90   88 1 
    93  124  122 1 
    94   88   89 1 
    95   88   91 1 
    96  126  125 1 
    97   92   91 1 
    98  125  122 1 
    99  125  127 1 
   100   91   93 2 
   101  122  123 1 
   102  122  119 1 
   103   97   95 1 
   104  118  116 1 
   105  120  119 1 
   106   93   94 1 
   107   93   95 1 
   108  119  116 1 
   109  119  121 1 
   110   95   96 1 
   111   95   98 1 
   112  116  117 1 
   113  116  114 1 
   114  104  102 1 
   115  111  109 1 
   116   98   99 1 
   117   98  100 2 
   118  114  115 1 
   119  114  112 2 
   120  102  103 1 
   121  102  100 1 
   122  102  105 1 
   123  109  110 1 
   124  109  112 1 
   125  109  107 1 
   126  100  101 1 
   127  112  113 1 
   128  105  107 2 
   129  105  106 1 
   130  107  108 1 
