@<TRIPOS>MOLECULE
C:\Users\Praveer\PycharmProjects\pdb_to_mol2_converter\data\pdb\daps.pdb
  131   130     0     0     0
SMALL
GASTEIGER

@<TRIPOS>ATOM
      1 N           0.1940    0.0950    0.3150 N.4       1 DAP1        0.0000
      2 HN1         0.0950    1.0560    0.7100 H         1 DAP1        0.0000
      3 HN2        -0.0530   -0.5960    1.0430 H         1 DAP1        0.0000
      4 HN3        -0.3260   -0.0610   -0.5810 H         1 DAP1        0.0000
      5 C12         1.6210   -0.0690   -0.0830 C.3       1 DAP1        0.0000
      6 H12A        2.0770   -0.8010    0.5700 H         1 DAP1        0.0000
      7 C13         1.6760   -0.6070   -1.5290 C.2       1 DAP1        0.0000
      8 O13A        0.5810   -0.8050   -2.1310 O.co2     1 DAP1        0.0000
      9 O13B        2.8010   -0.8580   -2.0230 O.co2     1 DAP1        0.0000
     10 C11         2.3700    1.3050    0.0390 C.3       1 DAP1        0.0000
     11 H11A        2.1560    1.8990   -0.8790 H         1 DAP1        0.0000
     12 H11B        3.4670    1.1030    0.0370 H         1 DAP1        0.0000
     13 P           1.9800    1.5130    2.6480 P.3       1 DAP1        0.0000
     14 O13         2.9330    0.3950    2.7290 O.2       1 DAP1        0.0000
     15 O14         0.5530    1.1910    2.8820 O.3       1 DAP1        0.0000
     16 O12         2.0080    2.1020    1.1770 O.3       1 DAP1        0.0000
     17 O11         2.4420    2.7060    3.5710 O.3       1 DAP1        0.0000
     18 C1          2.3260    4.0660    3.1670 C.3       1 DAP1        0.0000
     19 HA          1.2920    4.3010    2.8200 H         1 DAP1        0.0000
     20 HB          3.0390    4.2820    2.3390 H         1 DAP1        0.0000
     21 C2          2.6780    4.9790    4.3700 C.3       1 DAP1        0.0000
     22 HS          1.8590    4.8980    5.1250 H         1 DAP1        0.0000
     23 O21         2.8720    6.3380    3.9390 O.3       1 DAP1        0.0000
     24 C21         1.7610    7.0150    3.7140 C.2       1 DAP1        0.0000
     25 O22         0.6270    6.5920    3.8020 O.2       1 DAP1        0.0000
     26 C22         2.1490    8.4550    3.3710 C.3       1 DAP1        0.0000
     27 H2R         2.8790    8.4280    2.5370 H         1 DAP1        0.0000
     28 H2S         2.6470    8.8840    4.2650 H         1 DAP1        0.0000
     29 C3          3.9800    4.5090    5.0780 C.3       1 DAP1        0.0000
     30 HX          4.8010    4.5980    4.3260 H         1 DAP1        0.0000
     31 HY          3.8750    3.4370    5.3570 H         1 DAP1        0.0000
     32 O31         4.2260    5.3040    6.2610 O.3       1 DAP1        0.0000
     33 C31         5.4810    5.2690    6.6910 C.2       1 DAP1        0.0000
     34 O32         6.3900    4.6380    6.1850 O.2       1 DAP1        0.0000
     35 C32         5.6030    6.1540    7.9320 C.3       1 DAP1        0.0000
     36 H2X         4.9150    5.7540    8.7050 H         1 DAP1        0.0000
     37 H2Y         5.2720    7.1760    7.6560 H         1 DAP1        0.0000
     38 C23         0.9360    9.3310    2.9850 C.3       1 DAP1        0.0000
     39 H3R         0.1850    9.3080    3.8090 H         1 DAP1        0.0000
     40 H3S         0.4530    8.9070    2.0750 H         1 DAP1        0.0000
     41 C24         1.3570   10.7880    2.7200 C.3       1 DAP1        0.0000
     42 H4R         2.1320   10.7900    1.9210 H         1 DAP1        0.0000
     43 H4S         1.8350   11.1890    3.6420 H         1 DAP1        0.0000
     44 C25         0.1920   11.6520    2.3180 C.2       1 DAP1        0.0000
     45 H5R        -0.7840   11.1430    2.2630 H         1 DAP1        0.0000
     46 C26         0.2680   12.9630    2.0310 C.2       1 DAP1        0.0000
     47 H6R        -0.6570   13.4900    1.7470 H         1 DAP1        0.0000
     48 C27         1.5340   13.7910    2.0650 C.3       1 DAP1        0.0000
     49 H7R         2.2880   13.3450    1.3770 H         1 DAP1        0.0000
     50 H7S         1.9820   13.7430    3.0830 H         1 DAP1        0.0000
     51 C28         1.3030   15.2350    1.6860 C.2       1 DAP1        0.0000
     52 H8R         0.2650   15.5080    1.4350 H         1 DAP1        0.0000
     53 C29         2.2380   16.2000    1.6300 C.2       1 DAP1        0.0000
     54 H9R         1.9120   17.2100    1.3360 H         1 DAP1        0.0000
     55 C210        3.7130   16.0430    1.9330 C.3       1 DAP1        0.0000
     56 H10R        4.1510   15.2680    1.2650 H         1 DAP1        0.0000
     57 H10S        3.8430   15.6650    2.9720 H         1 DAP1        0.0000
     58 C211        4.4710   17.3420    1.7680 C.2       1 DAP1        0.0000
     59 H11R        3.8710   18.2120    1.4570 H         1 DAP1        0.0000
     60 C212        5.7890   17.5370    1.9600 C.2       1 DAP1        0.0000
     61 H12R        6.1820   18.5530    1.7940 H         1 DAP1        0.0000
     62 C213        6.8030   16.4990    2.3850 C.3       1 DAP1        0.0000
     63 H13R        6.8050   15.6610    1.6530 H         1 DAP1        0.0000
     64 H13S        6.4960   16.0570    3.3590 H         1 DAP1        0.0000
     65 C214        8.2000   17.0680    2.5050 C.2       1 DAP1        0.0000
     66 H14R        8.3130   18.1400    2.2760 H         1 DAP1        0.0000
     67 C215        9.2980   16.3810    2.8640 C.2       1 DAP1        0.0000
     68 H15R       10.2650   16.9070    2.9160 H         1 DAP1        0.0000
     69 C216        9.3430   14.9170    3.2140 C.3       1 DAP1        0.0000
     70 H16R        8.9870   14.3010    2.3580 H         1 DAP1        0.0000
     71 H16S        8.6760   14.7020    4.0780 H         1 DAP1        0.0000
     72 C217       10.7730   14.4730    3.5760 C.3       1 DAP1        0.0000
     73 H17R       11.1420   15.0680    4.4420 H         1 DAP1        0.0000
     74 H17S       11.4540   14.6650    2.7150 H         1 DAP1        0.0000
     75 C218       10.8570   12.9830    3.9380 C.3       1 DAP1        0.0000
     76 H18R       10.4960   12.3770    3.0770 H         1 DAP1        0.0000
     77 H18S       10.1850   12.7790    4.8010 H         1 DAP1        0.0000
     78 C219       12.2830   12.5440    4.2980 C.3       1 DAP1        0.0000
     79 H19R       12.6410   13.1580    5.1550 H         1 DAP1        0.0000
     80 H19S       12.9520   12.7570    3.4330 H         1 DAP1        0.0000
     81 C220       12.3870   11.0610    4.6620 C.3       1 DAP1        0.0000
     82 H20R       12.0580   10.4280    3.8110 H         1 DAP1        0.0000
     83 H20S       11.7460   10.8310    5.5400 H         1 DAP1        0.0000
     84 H20T       13.4360   10.7940    4.9140 H         1 DAP1        0.0000
     85 C33         7.0470    6.1980    8.4830 C.3       1 DAP1        0.0000
     86 H3X         7.7310    6.5760    7.6870 H         1 DAP1        0.0000
     87 H3Y         7.3710    5.1630    8.7420 H         1 DAP1        0.0000
     88 C34         7.1650    7.0960    9.7270 C.3       1 DAP1        0.0000
     89 H4X         6.4700    6.7120   10.5070 H         1 DAP1        0.0000
     90 H4Y         6.8220    8.1210    9.4560 H         1 DAP1        0.0000
     91 C35         8.5750    7.1400   10.2570 C.2       1 DAP1        0.0000
     92 H5X         9.3140    6.5390    9.7030 H         1 DAP1        0.0000
     93 C36         8.9700    7.8450   11.3320 C.2       1 DAP1        0.0000
     94 H6X        10.0290    7.8040   11.6320 H         1 DAP1        0.0000
     95 C37         8.0580    8.7050   12.1760 C.3       1 DAP1        0.0000
     96 H7X         7.2270    8.0790   12.5720 H         1 DAP1        0.0000
     97 H7Y         7.5780    9.4740   11.5290 H         1 DAP1        0.0000
     98 C38         8.7530    9.3920   13.3280 C.2       1 DAP1        0.0000
     99 H8X         9.8330    9.2020   13.4360 H         1 DAP1        0.0000
    100 C39         8.1510   10.2050   14.2130 C.2       1 DAP1        0.0000
    101 H9X         8.7600   10.6520   15.0150 H         1 DAP1        0.0000
    102 C310        6.6820   10.5650   14.2010 C.3       1 DAP1        0.0000
    103 H10X        6.0750    9.6340   14.2660 H         1 DAP1        0.0000
    104 H10Y        6.4250   11.0300   13.2220 H         1 DAP1        0.0000
    105 C311        6.2820   11.5010   15.3170 C.2       1 DAP1        0.0000
    106 H11X        7.0850   11.8140   16.0040 H         1 DAP1        0.0000
    107 C312        5.0410   11.9720   15.5320 C.2       1 DAP1        0.0000
    108 H12X        4.8840   12.6500   16.3860 H         1 DAP1        0.0000
    109 C313        3.8210   11.6530   14.6970 C.3       1 DAP1        0.0000
    110 H13X        3.6580   10.5520   14.6850 H         1 DAP1        0.0000
    111 H13Y        4.0090   11.9470   13.6400 H         1 DAP1        0.0000
    112 C314        2.5700   12.3410   15.1950 C.2       1 DAP1        0.0000
    113 H14X        2.6860   12.9790   16.0860 H         1 DAP1        0.0000
    114 C315        1.3480   12.2380   14.6460 C.2       1 DAP1        0.0000
    115 H15X        0.5120   12.7900   15.1040 H         1 DAP1        0.0000
    116 C316        0.9840   11.4210   13.4330 C.3       1 DAP1        0.0000
    117 H16X        1.2150   10.3450   13.6000 H         1 DAP1        0.0000
    118 H16Y        1.5690   11.7530   12.5460 H         1 DAP1        0.0000
    119 C317       -0.5170   11.5630   13.1200 C.3       1 DAP1        0.0000
    120 H17X       -0.7600   12.6350   12.9370 H         1 DAP1        0.0000
    121 H17Y       -1.1150   11.2210   13.9960 H         1 DAP1        0.0000
    122 C318       -0.9570   10.7550   11.8910 C.3       1 DAP1        0.0000
    123 H18X       -0.7300    9.6780   12.0590 H         1 DAP1        0.0000
    124 H18Y       -0.3760   11.0890   11.0030 H         1 DAP1        0.0000
    125 C319       -2.4560   10.9130   11.6010 C.3       1 DAP1        0.0000
    126 H19X       -2.6790   11.9930   11.4430 H         1 DAP1        0.0000
    127 H19Y       -3.0320   10.5860   12.4960 H         1 DAP1        0.0000
    128 C320       -2.9270   10.1180   10.3800 C.3       1 DAP1        0.0000
    129 H20X       -2.7370    9.0330   10.5290 H         1 DAP1        0.0000
    130 H20Y       -2.3820   10.4480    9.4700 H         1 DAP1        0.0000
    131 H20Z       -4.0160   10.2670   10.2140 H         1 DAP1        0.0000
@<TRIPOS>BOND
     1    8    7 ar
     2    9    7 ar
     3    7    5 1 
     4   11   10 1 
     5    4    1 1 
     6    5   10 1 
     7    5    1 1 
     8    5    6 1 
     9   12   10 1 
    10   10   16 1 
    11    1    2 1 
    12    1    3 1 
    13   16   13 1 
    14   56   55 1 
    15   54   53 1 
    16   49   48 1 
    17   52   51 1 
    18   59   58 1 
    19   53   51 2 
    20   53   55 1 
    21   63   62 1 
    22   51   48 1 
    23   47   46 1 
    24   58   55 1 
    25   58   60 2 
    26   61   60 1 
    27   42   41 1 
    28   55   57 1 
    29   60   62 1 
    30   46   48 1 
    31   46   44 2 
    32   48   50 1 
    33   40   38 1 
    34   45   44 1 
    35   66   65 1 
    36   44   41 1 
    37   20   18 1 
    38   70   69 1 
    39   62   65 1 
    40   62   64 1 
    41   65   67 2 
    42   27   26 1 
    43   13   14 2 
    44   13   15 1 
    45   13   17 1 
    46   74   72 1 
    47   41   38 1 
    48   41   43 1 
    49   19   18 1 
    50   67   68 1 
    51   67   69 1 
    52   38   26 1 
    53   38   39 1 
    54   76   75 1 
    55   18   17 1 
    56   18   21 1 
    57   69   72 1 
    58   69   71 1 
    59   26   24 1 
    60   26   28 1 
    61   80   78 1 
    62   72   75 1 
    63   72   73 1 
    64   24   25 2 
    65   24   23 1 
    66   82   81 1 
    67   75   78 1 
    68   75   77 1 
    69   23   21 1 
    70   78   81 1 
    71   78   79 1 
    72   30   29 1 
    73   21   29 1 
    74   21   22 1 
    75   81   84 1 
    76   81   83 1 
    77   29   31 1 
    78   29   32 1 
    79   34   33 2 
    80   32   33 1 
    81   33   35 1 
    82   37   35 1 
    83   86   85 1 
    84   35   85 1 
    85   35   36 1 
    86   85   87 1 
    87   85   88 1 
    88   90   88 1 
    89  130  128 1 
    90   92   91 1 
    91   88   91 1 
    92   88   89 1 
    93  131  128 1 
    94   91   93 2 
    95  128  129 1 
    96  128  125 1 
    97  124  122 1 
    98   93   94 1 
    99   93   95 1 
   100  126  125 1 
   101   97   95 1 
   102  125  122 1 
   103  125  127 1 
   104  122  123 1 
   105  122  119 1 
   106   95   96 1 
   107   95   98 1 
   108  118  116 1 
   109  120  119 1 
   110  119  116 1 
   111  119  121 1 
   112  104  102 1 
   113   98   99 1 
   114   98  100 2 
   115  116  117 1 
   116  116  114 1 
   117  111  109 1 
   118  102  100 1 
   119  102  103 1 
   120  102  105 1 
   121  100  101 1 
   122  114  115 1 
   123  114  112 2 
   124  110  109 1 
   125  109  112 1 
   126  109  107 1 
   127  112  113 1 
   128  105  107 2 
   129  105  106 1 
   130  107  108 1 
