@<TRIPOS>MOLECULE
C:\Users\Praveer\PycharmProjects\pdb_to_mol2_converter\data\pdb\daraol.pdb
   22    21     0     0     0
SMALL
GASTEIGER

@<TRIPOS>ATOM
      1 C1          0.0260    0.0010    0.0030 C.3       1 DAR1        0.0000
      2 H11        -0.3610    0.6000   -0.8530 H         1 DAR1        0.0000
      3 H12        -0.3820   -1.0320   -0.0920 H         1 DAR1        0.0000
      4 O1         -0.4340    0.5810    1.2290 O.3       1 DAR1        0.0000
      5 HO1        -0.5590   -0.1400    1.8600 H         1 DAR1        0.0000
      6 C2          1.5360   -0.0280   -0.0060 C.3       1 DAR1        0.0000
      7 H2          1.8940   -0.5940    0.8850 H         1 DAR1        0.0000
      8 O2          1.9330   -0.7380   -1.1850 O.3       1 DAR1        0.0000
      9 HO2         2.0980   -0.0320   -1.8240 H         1 DAR1        0.0000
     10 C3          2.1540    1.3700   -0.0100 C.3       1 DAR1        0.0000
     11 H3          1.7020    1.9680    0.8170 H         1 DAR1        0.0000
     12 O3          1.8760    2.0510   -1.2520 O.3       1 DAR1        0.0000
     13 HO3         1.1500    2.6530   -1.0660 H         1 DAR1        0.0000
     14 C4          3.6570    1.3120    0.2330 C.3       1 DAR1        0.0000
     15 H4          4.0970    0.5460   -0.4490 H         1 DAR1        0.0000
     16 O4          3.9110    0.9050    1.5810 O.3       1 DAR1        0.0000
     17 HO4         4.0600    1.7450    2.0390 H         1 DAR1        0.0000
     18 C5          4.3870    2.6230   -0.0100 C.3       1 DAR1        0.0000
     19 H51         4.2620    2.9540   -1.0660 H         1 DAR1        0.0000
     20 H52         5.4790    2.4710    0.1610 H         1 DAR1        0.0000
     21 O5          3.9230    3.6440    0.8850 O.3       1 DAR1        0.0000
     22 HO5         3.4590    4.2990    0.3530 H         1 DAR1        0.0000
@<TRIPOS>BOND
     1    9    8 1 
     2   12   13 1 
     3   12   10 1 
     4    8    6 1 
     5   19   18 1 
     6    2    1 1 
     7   15   14 1 
     8    3    1 1 
     9   10    6 1 
    10   10   14 1 
    11   10   11 1 
    12   18   20 1 
    13   18   14 1 
    14   18   21 1 
    15    6    1 1 
    16    6    7 1 
    17    1    4 1 
    18   14   16 1 
    19   22   21 1 
    20    4    5 1 
    21   16   17 1 
