@<TRIPOS>MOLECULE
C:\Users\Praveer\PycharmProjects\pdb_to_mol2_converter\data\pdb\dbre.pdb
    8     7     0     0     0
SMALL
GASTEIGER

@<TRIPOS>ATOM
      1 C1          1.9630    0.0060    0.0200 C.3       1 DBR1        0.0000
      2 BR11        0.0050   -0.0110   -0.0090 Br        1 DBR1        0.0000
      3 BR12        2.6120   -0.9740    1.5850 Br        1 DBR1        0.0000
      4 H13         2.3010   -0.5610   -0.8760 H         1 DBR1        0.0000
      5 C2          2.5080    1.4470   -0.0020 C.3       1 DBR1        0.0000
      6 H21         2.1650    2.0060    0.8960 H         1 DBR1        0.0000
      7 H22         2.1530    1.9880   -0.9050 H         1 DBR1        0.0000
      8 H23         3.6190    1.4460   -0.0080 H         1 DBR1        0.0000
@<TRIPOS>BOND
     1    7    5 1 
     2    4    1 1 
     3    2    1 1 
     4    8    5 1 
     5    5    1 1 
     6    5    6 1 
     7    1    3 1 
