@<TRIPOS>MOLECULE
C:\Users\Praveer\PycharmProjects\pdb_to_mol2_converter\data\pdb\dca.pdb
   67    70     0     0     0
SMALL
GASTEIGER

@<TRIPOS>ATOM
      1 C3          2.1710    1.4290   -0.1310 C.3       1 DCA1        0.0000
      2 O3          3.5440    1.3040   -0.4570 O.3       1 DCA1        0.0000
      3 H3'         3.5580    0.8360   -1.2950 H         1 DCA1        0.0000
      4 H3          2.0600    1.9220    0.8630 H         1 DCA1        0.0000
      5 C4          1.4700    2.2820   -1.2050 C.3       1 DCA1        0.0000
      6 H4A         1.8570    1.9920   -2.2040 H         1 DCA1        0.0000
      7 H4B         1.7480    3.3460   -1.0460 H         1 DCA1        0.0000
      8 C5         -0.0830    2.1640   -1.2260 C.3       1 DCA1        0.0000
      9 H5         -0.4290    2.6640   -0.2880 H         1 DCA1        0.0000
     10 C6         -0.6710    2.9670   -2.4100 C.3       1 DCA1        0.0000
     11 H6A        -0.1860    3.9650   -2.4620 H         1 DCA1        0.0000
     12 H6B        -1.7560    3.1340   -2.2360 H         1 DCA1        0.0000
     13 C7         -0.4960    2.2310   -3.7450 C.3       1 DCA1        0.0000
     14 H7A         0.5820    2.2040   -4.0090 H         1 DCA1        0.0000
     15 H7B        -1.0280    2.7980   -4.5400 H         1 DCA1        0.0000
     16 C8         -1.0320    0.7790   -3.6700 C.3       1 DCA1        0.0000
     17 H8         -2.1300    0.7980   -3.5670 H         1 DCA1        0.0000
     18 C14        -0.5860    0.0630   -4.9650 C.3       1 DCA1        0.0000
     19 H14         0.5260   -0.0170   -4.9740 H         1 DCA1        0.0000
     20 C15        -1.0220    0.7430   -6.2590 C.3       1 DCA1        0.0000
     21 H15A       -0.3150    1.5340   -6.5520 H         1 DCA1        0.0000
     22 H15B       -2.0090    1.2160   -6.1460 H         1 DCA1        0.0000
     23 C16        -1.0710   -0.4050   -7.2800 C.3       1 DCA1        0.0000
     24 H16A       -0.4020   -0.2200   -8.1330 H         1 DCA1        0.0000
     25 H16B       -2.0810   -0.4920   -7.7080 H         1 DCA1        0.0000
     26 C17        -0.6800   -1.7100   -6.5400 C.3       1 DCA1        0.0000
     27 H17         0.4180   -1.7820   -6.5210 H         1 DCA1        0.0000
     28 C13        -1.1820   -1.3650   -5.0850 C.3       1 DCA1        0.0000
     29 C18        -2.7360   -1.3970   -5.0040 C.3       1 DCA1        0.0000
     30 H18A       -3.1660   -0.3820   -4.9160 H         1 DCA1        0.0000
     31 H18B       -3.0730   -1.9930   -4.1330 H         1 DCA1        0.0000
     32 H18C       -3.1800   -1.8510   -5.9090 H         1 DCA1        0.0000
     33 C12        -0.5540   -2.2070   -3.9350 C.3       1 DCA1        0.0000
     34 H12        -1.1250   -3.1560   -3.8390 H         1 DCA1        0.0000
     35 O12         0.8030   -2.5890   -4.1340 O.3       1 DCA1        0.0000
     36 H12'        0.8260   -2.9560   -5.0230 H         1 DCA1        0.0000
     37 C11        -0.7030   -1.4920   -2.5620 C.3       1 DCA1        0.0000
     38 H11A       -0.0640   -2.0270   -1.8280 H         1 DCA1        0.0000
     39 H11B       -1.7550   -1.6230   -2.2330 H         1 DCA1        0.0000
     40 C9         -0.3570    0.0220   -2.5310 C.3       1 DCA1        0.0000
     41 H9          0.7410    0.0750   -2.7240 H         1 DCA1        0.0000
     42 C10        -0.6190    0.7300   -1.1810 C.3       1 DCA1        0.0000
     43 C19        -2.1300    0.7560   -0.8280 C.3       1 DCA1        0.0000
     44 H19A       -2.7320    1.2560   -1.6090 H         1 DCA1        0.0000
     45 H19B       -2.2850    1.3080    0.1230 H         1 DCA1        0.0000
     46 H19C       -2.5180   -0.2720   -0.6880 H         1 DCA1        0.0000
     47 C1          0.0640    0.0060    0.0130 C.3       1 DCA1        0.0000
     48 H1A        -0.3140   -1.0330    0.0960 H         1 DCA1        0.0000
     49 H1B        -0.2360    0.5330    0.9470 H         1 DCA1        0.0000
     50 C2          1.5950    0.0060   -0.0560 C.3       1 DCA1        0.0000
     51 H2A         2.0000   -0.4960    0.8510 H         1 DCA1        0.0000
     52 H2B         1.9230   -0.5900   -0.9350 H         1 DCA1        0.0000
     53 C20        -1.2300   -2.9880   -7.2540 C.3       1 DCA1        0.0000
     54 H20        -2.2970   -2.8280   -7.5230 H         1 DCA1        0.0000
     55 C21        -1.1300   -4.2470   -6.3690 C.3       1 DCA1        0.0000
     56 H21A       -1.8250   -4.1780   -5.5090 H         1 DCA1        0.0000
     57 H21B       -0.0930   -4.3960   -6.0070 H         1 DCA1        0.0000
     58 H21C       -1.4230   -5.1490   -6.9460 H         1 DCA1        0.0000
     59 C22        -0.4620   -3.1960   -8.5830 C.3       1 DCA1        0.0000
     60 H22A        0.5900   -3.4850   -8.3700 H         1 DCA1        0.0000
     61 H22B       -0.4320   -2.2380   -9.1470 H         1 DCA1        0.0000
     62 C23        -1.0970   -4.2500   -9.5290 C.3       1 DCA1        0.0000
     63 H23A       -2.1490   -3.9740   -9.7450 H         1 DCA1        0.0000
     64 H23B       -1.0810   -5.2570   -9.0700 H         1 DCA1        0.0000
     65 CD         -0.3780   -4.3690  -10.8740 C.2       1 DCA1        0.0000
     66 OE1        -0.8980   -5.1870  -11.6750 O.co2     1 DCA1        0.0000
     67 OE2         0.6410   -3.6540  -11.0450 O.co2     1 DCA1        0.0000
@<TRIPOS>BOND
     1   66   65 ar
     2   67   65 ar
     3   65   62 1 
     4   63   62 1 
     5   62   64 1 
     6   62   59 1 
     7   61   59 1 
     8   59   60 1 
     9   59   53 1 
    10   24   23 1 
    11   25   23 1 
    12   54   53 1 
    13   23   26 1 
    14   23   20 1 
    15   53   26 1 
    16   53   55 1 
    17   58   55 1 
    18   21   20 1 
    19   26   27 1 
    20   26   28 1 
    21   55   57 1 
    22   55   56 1 
    23   20   22 1 
    24   20   18 1 
    25   32   29 1 
    26   28   29 1 
    27   28   18 1 
    28   28   33 1 
    29   36   35 1 
    30   29   30 1 
    31   29   31 1 
    32   19   18 1 
    33   18   16 1 
    34   15   13 1 
    35   35   33 1 
    36   14   13 1 
    37   33   34 1 
    38   33   37 1 
    39   13   16 1 
    40   13   10 1 
    41   16   17 1 
    42   16   40 1 
    43   41   40 1 
    44   37   40 1 
    45   37   39 1 
    46   37   38 1 
    47   40   42 1 
    48   11   10 1 
    49   10   12 1 
    50   10    8 1 
    51    6    5 1 
    52   44   43 1 
    53    3    2 1 
    54    8    5 1 
    55    8   42 1 
    56    8    9 1 
    57    5    7 1 
    58    5    1 1 
    59   42   43 1 
    60   42   47 1 
    61   52   50 1 
    62   43   46 1 
    63   43   45 1 
    64    2    1 1 
    65    1   50 1 
    66    1    4 1 
    67   50   47 1 
    68   50   51 1 
    69   47   48 1 
    70   47   49 1 
