@<TRIPOS>MOLECULE
C:\Users\Praveer\PycharmProjects\pdb_to_mol2_converter\data\pdb\dcle.pdb
    8     7     0     0     0
SMALL
GASTEIGER

@<TRIPOS>ATOM
      1 C1          1.7840    0.0020    0.0110 C.3       1 DCL1        0.0000
      2 CL11        0.0070   -0.0040   -0.0010 Cl        1 DCL1        0.0000
      3 CL12        2.3450   -0.8830    1.4480 Cl        1 DCL1        0.0000
      4 H13         2.1320   -0.5540   -0.8870 H         1 DCL1        0.0000
      5 C2          2.3330    1.4420   -0.0010 C.3       1 DCL1        0.0000
      6 H21         1.9850    1.9980    0.8970 H         1 DCL1        0.0000
      7 H22         1.9850    1.9870   -0.9050 H         1 DCL1        0.0000
      8 H23         3.4440    1.4380    0.0000 H         1 DCL1        0.0000
@<TRIPOS>BOND
     1    7    5 1 
     2    4    1 1 
     3    2    1 1 
     4    5    8 1 
     5    5    1 1 
     6    5    6 1 
     7    1    3 1 
