@<TRIPOS>MOLECULE
C:\Users\Praveer\PycharmProjects\pdb_to_mol2_converter\data\pdb\dda.pdb
   63    62     0     0     0
SMALL
GASTEIGER

@<TRIPOS>ATOM
      1 O1          0.0020   -0.0110   -0.0230 O.co2     1 DDA1        0.0000
      2 O2          1.9720   -1.0400   -0.0910 O.co2     1 DDA1        0.0000
      3 C1          1.2610   -0.0050   -0.0340 C.2       1 DDA1        0.0000
      4 C2          1.9400    1.3650    0.0260 C.3       1 DDA1        0.0000
      5 H2R         1.5980    1.8590    0.9580 H         1 DDA1        0.0000
      6 H2S         1.5750    1.9500   -0.8410 H         1 DDA1        0.0000
      7 C3          3.4830    1.2850    0.0020 C.3       1 DDA1        0.0000
      8 H3R         3.8020    0.7670   -0.9310 H         1 DDA1        0.0000
      9 H3S         3.8250    0.6630    0.8590 H         1 DDA1        0.0000
     10 C4          4.1430    2.6680    0.0750 C.3       1 DDA1        0.0000
     11 H4R         3.8210    3.1670    1.0160 H         1 DDA1        0.0000
     12 H4S         3.7790    3.2830   -0.7780 H         1 DDA1        0.0000
     13 C5          5.6750    2.5970    0.0330 C.3       1 DDA1        0.0000
     14 H5R         5.9850    2.1020   -0.9140 H         1 DDA1        0.0000
     15 H5S         6.0280    1.9600    0.8760 H         1 DDA1        0.0000
     16 C6          6.3390    3.9770    0.1280 C.3       1 DDA1        0.0000
     17 H6R         6.0340    4.4590    1.0840 H         1 DDA1        0.0000
     18 H6S         5.9690    4.6150   -0.7060 H         1 DDA1        0.0000
     19 C7          7.8710    3.9030    0.0650 C.3       1 DDA1        0.0000
     20 H7R         8.1710    3.4370   -0.9000 H         1 DDA1        0.0000
     21 H7S         8.2350    3.2440    0.8860 H         1 DDA1        0.0000
     22 C8          8.5390    5.2790    0.1910 C.3       1 DDA1        0.0000
     23 H8R         8.2530    5.7320    1.1670 H         1 DDA1        0.0000
     24 H8S         8.1600    5.9450   -0.6160 H         1 DDA1        0.0000
     25 C9         10.0700    5.2010    0.1010 C.3       1 DDA1        0.0000
     26 H9R        10.3540    4.7790   -0.8880 H         1 DDA1        0.0000
     27 H9S        10.4450    4.5060    0.8860 H         1 DDA1        0.0000
     28 C10        10.7470    6.5670    0.2810 C.3       1 DDA1        0.0000
     29 H10R       10.4810    6.9740    1.2830 H         1 DDA1        0.0000
     30 H10S       10.3570    7.2740   -0.4850 H         1 DDA1        0.0000
     31 C11        12.2760    6.4880    0.1580 C.3       1 DDA1        0.0000
     32 H11R       12.5330    6.1270   -0.8640 H         1 DDA1        0.0000
     33 H11S       12.6500    5.7350    0.8900 H         1 DDA1        0.0000
     34 C12        12.9600    7.8430    0.4180 C.3       1 DDA1        0.0000
     35 H12R       12.6890    8.1800    1.4440 H         1 DDA1        0.0000
     36 H12S       12.5290    8.5840   -0.2920 H         1 DDA1        0.0000
     37 C13        14.4610    7.7400    0.2940 C.2       1 DDA1        0.0000
     38 H13R       14.8940    6.8450    0.7680 H         1 DDA1        0.0000
     39 C14        15.2890    8.5960   -0.3380 C.2       1 DDA1        0.0000
     40 H14R       16.3650    8.3630   -0.3470 H         1 DDA1        0.0000
     41 C15        14.9110    9.8800   -1.0420 C.3       1 DDA1        0.0000
     42 H15R       13.8430   10.1290   -0.8720 H         1 DDA1        0.0000
     43 H15S       15.0140    9.7270   -2.1390 H         1 DDA1        0.0000
     44 C16        15.8070   11.0250   -0.6270 C.2       1 DDA1        0.0000
     45 H16R       16.8780   10.7770   -0.5580 H         1 DDA1        0.0000
     46 C17        15.4280   12.2840   -0.3280 C.2       1 DDA1        0.0000
     47 H17R       16.2030   13.0090   -0.0330 H         1 DDA1        0.0000
     48 C18        14.0300   12.8500   -0.3680 C.3       1 DDA1        0.0000
     49 H18R       13.6500   12.9890    0.6690 H         1 DDA1        0.0000
     50 H18S       13.3160   12.1720   -0.8870 H         1 DDA1        0.0000
     51 C19        13.9870   14.2120   -1.0850 C.3       1 DDA1        0.0000
     52 H19R       14.3480   14.0960   -2.1330 H         1 DDA1        0.0000
     53 H19S       14.6650   14.9290   -0.5680 H         1 DDA1        0.0000
     54 C20        12.5740   14.8130   -1.1130 C.3       1 DDA1        0.0000
     55 H20R       12.1980   14.9040   -0.0700 H         1 DDA1        0.0000
     56 H20S       11.8940   14.1210   -1.6580 H         1 DDA1        0.0000
     57 C21        12.5290   16.1930   -1.7810 C.3       1 DDA1        0.0000
     58 H21R       12.9050   16.1000   -2.8250 H         1 DDA1        0.0000
     59 H21S       13.2210   16.8770   -1.2370 H         1 DDA1        0.0000
     60 C22        11.1280   16.8100   -1.8020 C.3       1 DDA1        0.0000
     61 H22R       10.7410   16.9300   -0.7670 H         1 DDA1        0.0000
     62 H22S       10.4250   16.1590   -2.3650 H         1 DDA1        0.0000
     63 H22T       11.1480   17.8090   -2.2880 H         1 DDA1        0.0000
@<TRIPOS>BOND
     1   58   57 1 
     2   62   60 1 
     3   63   60 1 
     4   43   41 1 
     5   52   51 1 
     6   60   57 1 
     7   60   61 1 
     8   57   59 1 
     9   57   54 1 
    10   56   54 1 
    11   54   51 1 
    12   54   55 1 
    13   51   53 1 
    14   51   48 1 
    15   41   42 1 
    16   41   44 1 
    17   41   39 1 
    18    8    7 1 
    19   14   13 1 
    20   20   19 1 
    21   26   25 1 
    22   50   48 1 
    23   32   31 1 
    24    6    4 1 
    25   12   10 1 
    26   18   16 1 
    27   44   45 1 
    28   44   46 2 
    29   24   22 1 
    30   30   28 1 
    31   48   46 1 
    32   48   49 1 
    33   40   39 1 
    34   39   37 2 
    35   46   47 1 
    36   36   34 1 
    37    2    3 ar
    38    3    1 ar
    39    3    4 1 
    40    7    4 1 
    41    7   10 1 
    42    7    9 1 
    43    4    5 1 
    44   13   10 1 
    45   13   16 1 
    46   13   15 1 
    47   19   16 1 
    48   19   22 1 
    49   19   21 1 
    50   10   11 1 
    51   25   22 1 
    52   25   28 1 
    53   25   27 1 
    54   16   17 1 
    55   31   28 1 
    56   31   34 1 
    57   31   33 1 
    58   22   23 1 
    59   28   29 1 
    60   37   34 1 
    61   37   38 1 
    62   34   35 1 
