@<TRIPOS>MOLECULE
C:\Users\Praveer\PycharmProjects\pdb_to_mol2_converter\data\pdb\ddap.pdb
   64    63     0     0     0
SMALL
GASTEIGER

@<TRIPOS>ATOM
      1 H1         -0.0800    0.1290   -0.0040 H         1 DDA1        0.0000
      2 O1          0.8750    0.0860   -0.0310 O.3       1 DDA1        0.0000
      3 O2          0.5650    2.3090    0.0880 O.2       1 DDA1        0.0000
      4 C1          1.3440    1.3770    0.0220 C.2       1 DDA1        0.0000
      5 C2          2.8660    1.4510   -0.0150 C.3       1 DDA1        0.0000
      6 H2R         3.2150    0.9710   -0.9530 H         1 DDA1        0.0000
      7 H2S         3.2650    0.8800    0.8490 H         1 DDA1        0.0000
      8 C3          3.3650    2.9110    0.0450 C.3       1 DDA1        0.0000
      9 H3R         3.0110    3.3900    0.9860 H         1 DDA1        0.0000
     10 H3S         2.9380    3.4890   -0.8070 H         1 DDA1        0.0000
     11 C4          4.8950    3.0110   -0.0130 C.3       1 DDA1        0.0000
     12 H4R         5.2570    2.5530   -0.9610 H         1 DDA1        0.0000
     13 H4S         5.3340    2.4350    0.8320 H         1 DDA1        0.0000
     14 C5          5.3880    4.4630    0.0620 C.3       1 DDA1        0.0000
     15 H5R         5.0400    4.9160    1.0170 H         1 DDA1        0.0000
     16 H5S         4.9350    5.0450   -0.7720 H         1 DDA1        0.0000
     17 C6          6.9150    4.5740   -0.0210 C.3       1 DDA1        0.0000
     18 H6R         7.2600    4.1390   -0.9860 H         1 DDA1        0.0000
     19 H6S         7.3700    3.9770    0.8010 H         1 DDA1        0.0000
     20 C7          7.4110    6.0230    0.0820 C.3       1 DDA1        0.0000
     21 H7R         7.0860    6.4510    1.0570 H         1 DDA1        0.0000
     22 H7S         6.9430    6.6290   -0.7260 H         1 DDA1        0.0000
     23 C8          8.9380    6.1270   -0.0320 C.3       1 DDA1        0.0000
     24 H8R         9.2550    5.7210   -1.0190 H         1 DDA1        0.0000
     25 H8S         9.4050    5.4970    0.7580 H         1 DDA1        0.0000
     26 C9          9.4530    7.5660    0.1090 C.3       1 DDA1        0.0000
     27 H9R         9.1640    7.9610    1.1080 H         1 DDA1        0.0000
     28 H9S         8.9670    8.2050   -0.6620 H         1 DDA1        0.0000
     29 C10        10.9770    7.6560   -0.0500 C.3       1 DDA1        0.0000
     30 H10R       11.2560    7.2830   -1.0620 H         1 DDA1        0.0000
     31 H10S       11.4630    6.9920    0.7000 H         1 DDA1        0.0000
     32 C11        11.5160    9.0840    0.1240 C.3       1 DDA1        0.0000
     33 H11R       11.2800    9.4300    1.1550 H         1 DDA1        0.0000
     34 H11S       10.9850    9.7520   -0.5910 H         1 DDA1        0.0000
     35 C12        13.0350    9.1680   -0.1190 C.3       1 DDA1        0.0000
     36 H12R       13.2400    8.8230   -1.1570 H         1 DDA1        0.0000
     37 H12S       13.5310    8.4460    0.5670 H         1 DDA1        0.0000
     38 C13        13.5540   10.5730    0.0660 C.2       1 DDA1        0.0000
     39 H13R       12.9130   11.3550   -0.3720 H         1 DDA1        0.0000
     40 C14        14.6770   10.9510    0.7100 C.2       1 DDA1        0.0000
     41 H14R       14.9020   12.0280    0.7670 H         1 DDA1        0.0000
     42 C15        15.6990   10.0510    1.3680 C.3       1 DDA1        0.0000
     43 H15R       15.5170    8.9850    1.1140 H         1 DDA1        0.0000
     44 H15S       15.5780   10.1260    2.4710 H         1 DDA1        0.0000
     45 C16        17.1110   10.4570    1.0090 C.2       1 DDA1        0.0000
     46 H16R       17.2960   11.5430    0.9930 H         1 DDA1        0.0000
     47 C17        18.1340    9.6360    0.7000 C.2       1 DDA1        0.0000
     48 H17R       19.1090   10.0830    0.4480 H         1 DDA1        0.0000
     49 C18        18.1140    8.1270    0.6800 C.3       1 DDA1        0.0000
     50 H18R       18.0110    7.7650   -0.3670 H         1 DDA1        0.0000
     51 H18S       17.2520    7.7160    1.2520 H         1 DDA1        0.0000
     52 C19        19.4050    7.5300    1.2730 C.3       1 DDA1        0.0000
     53 H19R       19.5240    7.8670    2.3280 H         1 DDA1        0.0000
     54 H19S       20.2850    7.8940    0.6950 H         1 DDA1        0.0000
     55 C20        19.4060    5.9940    1.2440 C.3       1 DDA1        0.0000
     56 H20R       19.2470    5.6530    0.1960 H         1 DDA1        0.0000
     57 H20S       18.5550    5.6180    1.8540 H         1 DDA1        0.0000
     58 C21        20.7130    5.3890    1.7730 C.3       1 DDA1        0.0000
     59 H21R       20.8800    5.7420    2.8160 H         1 DDA1        0.0000
     60 H21S       21.5590    5.7690    1.1550 H         1 DDA1        0.0000
     61 C22        20.7230    3.8580    1.7510 C.3       1 DDA1        0.0000
     62 H22R       20.5580    3.4840    0.7180 H         1 DDA1        0.0000
     63 H22S       19.9180    3.4570    2.4030 H         1 DDA1        0.0000
     64 H22T       21.6970    3.4670    2.1160 H         1 DDA1        0.0000
@<TRIPOS>BOND
     1   36   35 1 
     2   30   29 1 
     3   24   23 1 
     4   18   17 1 
     5   12   11 1 
     6    6    5 1 
     7   10    8 1 
     8   16   14 1 
     9   22   20 1 
    10   28   26 1 
    11   34   32 1 
    12   39   38 1 
    13   50   49 1 
    14   35   38 1 
    15   35   32 1 
    16   35   37 1 
    17   29   26 1 
    18   29   32 1 
    19   29   31 1 
    20   23   20 1 
    21   23   26 1 
    22   23   25 1 
    23    2    1 1 
    24    2    4 1 
    25   17   14 1 
    26   17   20 1 
    27   17   19 1 
    28    5    4 1 
    29    5    8 1 
    30    5    7 1 
    31   11    8 1 
    32   11   14 1 
    33   11   13 1 
    34    4    3 2 
    35    8    9 1 
    36   14   15 1 
    37   38   40 2 
    38   20   21 1 
    39   26   27 1 
    40   32   33 1 
    41   56   55 1 
    42   48   47 1 
    43   49   47 1 
    44   49   51 1 
    45   49   52 1 
    46   54   52 1 
    47   47   45 2 
    48   40   41 1 
    49   40   42 1 
    50   62   61 1 
    51   46   45 1 
    52   45   42 1 
    53   43   42 1 
    54   60   58 1 
    55   55   52 1 
    56   55   58 1 
    57   55   57 1 
    58   52   53 1 
    59   42   44 1 
    60   61   58 1 
    61   61   64 1 
    62   61   63 1 
    63   58   59 1 
