@<TRIPOS>MOLECULE
C:\Users\Praveer\PycharmProjects\pdb_to_mol2_converter\data\pdb\deca.pdb
   18    17     0     0     0
SMALL
GASTEIGER

@<TRIPOS>ATOM
      1 C1         -0.0420   -0.0700   -0.0660 C.3       1 DEC1        0.0000
      2 H11        -0.4180   -1.1090   -0.1680 H         1 DEC1        0.0000
      3 H12        -0.4190    0.5340   -0.9180 H         1 DEC1        0.0000
      4 H13        -0.4460    0.3620    0.8750 H         1 DEC1        0.0000
      5 C2          1.4900   -0.0480   -0.0380 C.3       1 DEC1        0.0000
      6 H21         1.8810   -0.4770   -0.9870 H         1 DEC1        0.0000
      7 H22         1.8760   -0.6830    0.7930 H         1 DEC1        0.0000
      8 O1          1.9530    1.3180    0.0710 O.3       1 DEC1        0.0000
      9 C           2.0540    1.8170    1.3250 C.2       1 DEC1        0.0000
     10 O           1.8280    1.2150    2.3730 O.2       1 DEC1        0.0000
     11 O2          2.4530    3.1040    1.2050 O.3       1 DEC1        0.0000
     12 C3          2.5970    3.8460    2.4380 C.3       1 DEC1        0.0000
     13 H31         3.3140    4.6790    2.2660 H         1 DEC1        0.0000
     14 H32         3.0190    3.2120    3.2520 H         1 DEC1        0.0000
     15 C4          1.2400    4.4240    2.8540 C.3       1 DEC1        0.0000
     16 H41         0.5150    3.6020    3.0330 H         1 DEC1        0.0000
     17 H42         0.8380    5.0760    2.0500 H         1 DEC1        0.0000
     18 H43         1.3370    5.0200    3.7860 H         1 DEC1        0.0000
@<TRIPOS>BOND
     1    6    5 1 
     2    3    1 1 
     3    2    1 1 
     4    1    5 1 
     5    1    4 1 
     6    5    8 1 
     7    5    7 1 
     8    8    9 1 
     9   11    9 1 
    10   11   12 1 
    11    9   10 2 
    12   17   15 1 
    13   13   12 1 
    14   12   15 1 
    15   12   14 1 
    16   15   16 1 
    17   15   18 1 
