@<TRIPOS>MOLECULE
C:\Users\Praveer\PycharmProjects\pdb_to_mol2_converter\data\pdb\decb.pdb
   19    18     0     0     0
SMALL
GASTEIGER

@<TRIPOS>ATOM
      1 C1          0.0240    0.0380   -0.0570 C.3       1 DEC1        0.0000
      2 H11        -0.4320   -0.9710   -0.1380 H         1 DEC1        0.0000
      3 H12        -0.2970    0.6470   -0.9280 H         1 DEC1        0.0000
      4 H13        -0.3550    0.5240    0.8690 H         1 DEC1        0.0000
      5 C2          1.5490   -0.0610   -0.0030 C.3       1 DEC1        0.0000
      6 H21         1.8950   -0.6050   -0.9120 H         1 DEC1        0.0000
      7 H22         1.8280   -0.7050    0.8660 H         1 DEC1        0.0000
      8 N3          2.2850    1.1660    0.0760 N.am      1 DEC1        0.0000
      9 H3          2.3730    1.7000   -0.7560 H         1 DEC1        0.0000
     10 C4          2.4090    1.8410    1.2520 C.2       1 DEC1        0.0000
     11 O41         1.9760    1.4800    2.3420 O.2       1 DEC1        0.0000
     12 O42         3.0860    2.9860    1.0290 O.3       1 DEC1        0.0000
     13 C5          3.3100    3.8400    2.1760 C.3       1 DEC1        0.0000
     14 H51         4.2360    4.4300    1.9990 H         1 DEC1        0.0000
     15 H52         3.4720    3.2510    3.1090 H         1 DEC1        0.0000
     16 C6          2.1250    4.7940    2.3380 C.3       1 DEC1        0.0000
     17 H61         1.1970    4.2160    2.5360 H         1 DEC1        0.0000
     18 H62         1.9780    5.3850    1.4090 H         1 DEC1        0.0000
     19 H63         2.2980    5.4920    3.1840 H         1 DEC1        0.0000
@<TRIPOS>BOND
     1    3    1 1 
     2    6    5 1 
     3    9    8 1 
     4    2    1 1 
     5    1    5 1 
     6    1    4 1 
     7    5    8 1 
     8    5    7 1 
     9    8   10 am
    10   12   10 1 
    11   12   13 1 
    12   10   11 2 
    13   18   16 1 
    14   14   13 1 
    15   13   16 1 
    16   13   15 1 
    17   16   17 1 
    18   16   19 1 
