@<TRIPOS>MOLECULE
C:\Users\Praveer\PycharmProjects\pdb_to_mol2_converter\data\pdb\deds.pdb
   16    15     0     0     0
SMALL
GASTEIGER

@<TRIPOS>ATOM
      1 H1          1.8830   -0.4650    0.9680 H         1 DED1        0.0000
      2 H2          1.9430   -0.5330   -0.8230 H         1 DED1        0.0000
      3 CM1         1.5280    0.0340    0.0390 C.3       1 DED1        0.0000
      4 S2          2.1570    1.7390   -0.0150 S.3       1 DED1        0.0000
      5 S3          1.4920    2.5590    1.7180 S.3       1 DED1        0.0000
      6 CM4         2.7500    2.0600    2.9290 C.3       1 DED1        0.0000
      7 H4          3.7420    2.4560    2.6160 H         1 DED1        0.0000
      8 H5          2.8240    0.9500    2.9500 H         1 DED1        0.0000
      9 CM0        -0.0040   -0.0220   -0.0140 C.3       1 DED1        0.0000
     10 H01        -0.4470    0.4960    0.8630 H         1 DED1        0.0000
     11 H02        -0.3560   -1.0760   -0.0100 H         1 DED1        0.0000
     12 H03        -0.3800    0.4700   -0.9370 H         1 DED1        0.0000
     13 CM5         2.4180    2.5730    4.3350 C.3       1 DED1        0.0000
     14 H51         1.4350    2.1770    4.6720 H         1 DED1        0.0000
     15 H52         2.3690    3.6830    4.3430 H         1 DED1        0.0000
     16 H53         3.1940    2.2500    5.0610 H         1 DED1        0.0000
@<TRIPOS>BOND
     1   12    9 1 
     2    2    3 1 
     3    4    3 1 
     4    4    5 1 
     5    9   11 1 
     6    9    3 1 
     7    9   10 1 
     8    3    1 1 
     9    5    6 1 
    10    7    6 1 
    11    6    8 1 
    12    6   13 1 
    13   13   15 1 
    14   13   14 1 
    15   13   16 1 
