@<TRIPOS>MOLECULE
C:\Users\Praveer\PycharmProjects\pdb_to_mol2_converter\data\pdb\depa.pdb
  144   143     0     0     0
SMALL
GASTEIGER

@<TRIPOS>ATOM
      1 P           1.5430    0.0490   -0.0400 P.3       1 DEP1        0.0000
      2 O13         2.0660   -0.4480   -1.3240 O.2       1 DEP1        0.0000
      3 O14         2.0970   -0.5100    1.2040 O.3       1 DEP1        0.0000
      4 O12         1.9860    1.5520   -0.0080 O.3       1 DEP1        0.0000
      5 H12         2.9460    1.5460   -0.0100 H         1 DEP1        0.0000
      6 O11        -0.0370    0.0340   -0.0270 O.3       1 DEP1        0.0000
      7 C1         -0.6880   -1.2230   -0.2450 C.3       1 DEP1        0.0000
      8 HA         -0.2660   -2.0210    0.4140 H         1 DEP1        0.0000
      9 HB         -0.5650   -1.5330   -1.3080 H         1 DEP1        0.0000
     10 C2         -2.2010   -1.1150    0.0700 C.3       1 DEP1        0.0000
     11 HS         -2.5990   -0.2770   -0.5520 H         1 DEP1        0.0000
     12 O21        -2.3470   -0.8670    1.4810 O.3       1 DEP1        0.0000
     13 C21        -3.3650   -0.1060    1.8200 C.2       1 DEP1        0.0000
     14 O22        -4.2020    0.3680    1.0710 O.2       1 DEP1        0.0000
     15 C22        -3.3560    0.0680    3.3390 C.3       1 DEP1        0.0000
     16 H2R        -2.4050    0.5670    3.6190 H         1 DEP1        0.0000
     17 H2S        -3.3720   -0.9440    3.7930 H         1 DEP1        0.0000
     18 C3         -2.9390   -2.4280   -0.3190 C.3       1 DEP1        0.0000
     19 HX         -2.4410   -3.2500    0.2420 H         1 DEP1        0.0000
     20 HY         -2.7800   -2.6360   -1.4030 H         1 DEP1        0.0000
     21 O31        -4.3350   -2.4100    0.0490 O.3       1 DEP1        0.0000
     22 C31        -5.1520   -1.8750   -0.8540 C.2       1 DEP1        0.0000
     23 O32        -4.8460   -1.5530   -1.9870 O.2       1 DEP1        0.0000
     24 C32        -6.5470   -1.7590   -0.2390 C.3       1 DEP1        0.0000
     25 H2X        -6.5090   -0.9430    0.5130 H         1 DEP1        0.0000
     26 H2Y        -6.7770   -2.7110    0.2810 H         1 DEP1        0.0000
     27 C23        -4.5620    0.8920    3.8390 C.3       1 DEP1        0.0000
     28 H3R        -5.5080    0.4310    3.4700 H         1 DEP1        0.0000
     29 H3S        -4.5080    1.9240    3.4220 H         1 DEP1        0.0000
     30 C24        -4.6240    0.9680    5.3690 C.3       1 DEP1        0.0000
     31 H4R        -3.6900    1.4370    5.7530 H         1 DEP1        0.0000
     32 H4S        -4.6790   -0.0650    5.7810 H         1 DEP1        0.0000
     33 C25        -5.8350    1.7700    5.8650 C.3       1 DEP1        0.0000
     34 H5R        -6.7620    1.3290    5.4340 H         1 DEP1        0.0000
     35 H5S        -5.7560    2.8170    5.4950 H         1 DEP1        0.0000
     36 C26        -5.9560    1.7800    7.3940 C.3       1 DEP1        0.0000
     37 H6R        -5.0320    2.2190    7.8340 H         1 DEP1        0.0000
     38 H6S        -6.0390    0.7310    7.7580 H         1 DEP1        0.0000
     39 C27        -7.1740    2.5770    7.8800 C.3       1 DEP1        0.0000
     40 H7R        -8.0930    2.1580    7.4100 H         1 DEP1        0.0000
     41 H7S        -7.0750    3.6340    7.5450 H         1 DEP1        0.0000
     42 C28        -7.3360    2.5430    9.4050 C.3       1 DEP1        0.0000
     43 H8R        -6.4140    2.9450    9.8810 H         1 DEP1        0.0000
     44 H8S        -7.4540    1.4860    9.7330 H         1 DEP1        0.0000
     45 C29        -8.5460    3.3550    9.8860 C.3       1 DEP1        0.0000
     46 H9R        -9.4620    2.9770    9.3790 H         1 DEP1        0.0000
     47 H9S        -8.4110    4.4200    9.5890 H         1 DEP1        0.0000
     48 C210       -8.7460    3.2750   11.4050 C.3       1 DEP1        0.0000
     49 H10R       -7.8290    3.6450   11.9150 H         1 DEP1        0.0000
     50 H10S       -8.8900    2.2100   11.6960 H         1 DEP1        0.0000
     51 C211       -9.9530    4.0940   11.8840 C.3       1 DEP1        0.0000
     52 H11R      -10.8600    3.7440   11.3410 H         1 DEP1        0.0000
     53 H11S       -9.7860    5.1620   11.6160 H         1 DEP1        0.0000
     54 C212      -10.1790    3.9720   13.4020 C.3       1 DEP1        0.0000
     55 H12R       -9.2330    4.2690   13.9090 H         1 DEP1        0.0000
     56 H12S      -10.3540    2.9010   13.6480 H         1 DEP1        0.0000
     57 C213      -11.3530    4.8050   13.8570 C.2       1 DEP1        0.0000
     58 H13R      -12.2830    4.6330   13.2950 H         1 DEP1        0.0000
     59 C214      -11.3490    5.7310   14.8340 C.2       1 DEP1        0.0000
     60 H14R      -12.2800    6.2810   15.0470 H         1 DEP1        0.0000
     61 C215      -10.1780    6.1040   15.7100 C.3       1 DEP1        0.0000
     62 H15R       -9.4660    5.2550   15.8200 H         1 DEP1        0.0000
     63 H15S      -10.5350    6.3450   16.7360 H         1 DEP1        0.0000
     64 C216       -9.4020    7.3140   15.1610 C.3       1 DEP1        0.0000
     65 H16R      -10.0830    8.1910   15.0750 H         1 DEP1        0.0000
     66 H16S       -9.0230    7.0780   14.1400 H         1 DEP1        0.0000
     67 C217       -8.2120    7.6970   16.0520 C.3       1 DEP1        0.0000
     68 H17R       -7.5300    6.8220   16.1410 H         1 DEP1        0.0000
     69 H17S       -8.5850    7.9400   17.0720 H         1 DEP1        0.0000
     70 C218       -7.4220    8.8940   15.5070 C.3       1 DEP1        0.0000
     71 H18R       -8.1020    9.7710   15.4210 H         1 DEP1        0.0000
     72 H18S       -7.0520    8.6510   14.4850 H         1 DEP1        0.0000
     73 C219       -6.2300    9.2680   16.3980 C.3       1 DEP1        0.0000
     74 H19R       -5.5480    8.3910   16.4810 H         1 DEP1        0.0000
     75 H19S       -6.6000    9.5060   17.4200 H         1 DEP1        0.0000
     76 C220       -5.4390   10.4680   15.8590 C.3       1 DEP1        0.0000
     77 H20R       -6.1210   11.3440   15.7740 H         1 DEP1        0.0000
     78 H20S       -5.0660   10.2300   14.8370 H         1 DEP1        0.0000
     79 C221       -4.2510   10.8430   16.7530 C.3       1 DEP1        0.0000
     80 H21R       -3.5740    9.9620   16.8370 H         1 DEP1        0.0000
     81 H21S       -4.6300   11.0710   17.7760 H         1 DEP1        0.0000
     82 C222       -3.4540   12.0420   16.2330 C.3       1 DEP1        0.0000
     83 H22R       -4.1040   12.9400   16.1640 H         1 DEP1        0.0000
     84 H22S       -3.0430   11.8280   15.2230 H         1 DEP1        0.0000
     85 H22T       -2.6070   12.2740   16.9150 H         1 DEP1        0.0000
     86 C33        -7.6420   -1.4530   -1.2850 C.3       1 DEP1        0.0000
     87 H3X        -7.6560   -2.2560   -2.0570 H         1 DEP1        0.0000
     88 H3Y        -7.4120   -0.4930   -1.8020 H         1 DEP1        0.0000
     89 C34        -9.0310   -1.3560   -0.6410 C.3       1 DEP1        0.0000
     90 H4X        -9.0360   -0.5190    0.0920 H         1 DEP1        0.0000
     91 H4Y        -9.2360   -2.2970   -0.0810 H         1 DEP1        0.0000
     92 C35       -10.1530   -1.1380   -1.6650 C.3       1 DEP1        0.0000
     93 H5X       -10.1390   -1.9750   -2.4000 H         1 DEP1        0.0000
     94 H5Y        -9.9650   -0.1940   -2.2240 H         1 DEP1        0.0000
     95 C36       -11.5390   -1.0720   -1.0080 C.3       1 DEP1        0.0000
     96 H6X       -11.5700   -0.2090   -0.3060 H         1 DEP1        0.0000
     97 H6Y       -11.6990   -1.9980   -0.4110 H         1 DEP1        0.0000
     98 C37       -12.6780   -0.9380   -2.0280 C.3       1 DEP1        0.0000
     99 H7X       -12.6360   -1.8010   -2.7300 H         1 DEP1        0.0000
    100 H7Y       -12.5340   -0.0090   -2.6230 H         1 DEP1        0.0000
    101 C38       -14.0610   -0.9050   -1.3620 C.3       1 DEP1        0.0000
    102 H8X       -14.1250   -0.0180   -0.6930 H         1 DEP1        0.0000
    103 H8Y       -14.1780   -1.8140   -0.7290 H         1 DEP1        0.0000
    104 C39       -15.2110   -0.8590   -2.3780 C.3       1 DEP1        0.0000
    105 H9X       -15.1340   -1.7450   -3.0480 H         1 DEP1        0.0000
    106 H9Y       -15.1100    0.0530   -3.0090 H         1 DEP1        0.0000
    107 C310      -16.5910   -0.8590   -1.7060 C.3       1 DEP1        0.0000
    108 H10X      -16.6940    0.0520   -1.0760 H         1 DEP1        0.0000
    109 H10Y      -16.6650   -1.7440   -1.0340 H         1 DEP1        0.0000
    110 C311      -17.7460   -0.9090   -2.7180 C.3       1 DEP1        0.0000
    111 H11X      -17.6180   -1.8160   -3.3520 H         1 DEP1        0.0000
    112 H11Y      -17.6830   -0.0170   -3.3820 H         1 DEP1        0.0000
    113 C312      -19.1250   -0.9450   -2.0320 C.3       1 DEP1        0.0000
    114 H12X      -19.2170   -0.0290   -1.4090 H         1 DEP1        0.0000
    115 H12Y      -19.1470   -1.8110   -1.3340 H         1 DEP1        0.0000
    116 C313      -20.2450   -1.0750   -3.0360 C.2       1 DEP1        0.0000
    117 H13X      -20.1780   -1.9690   -3.6760 H         1 DEP1        0.0000
    118 C314      -21.2720   -0.2250   -3.2300 C.2       1 DEP1        0.0000
    119 H14X      -22.0040   -0.4590   -4.0190 H         1 DEP1        0.0000
    120 C315      -21.5560    1.0530   -2.4780 C.3       1 DEP1        0.0000
    121 H15X      -20.9660    1.1270   -1.5380 H         1 DEP1        0.0000
    122 H15Y      -22.6270    1.0820   -2.1780 H         1 DEP1        0.0000
    123 C316      -21.2530    2.2950   -3.3340 C.3       1 DEP1        0.0000
    124 H16X      -21.8560    2.2650   -4.2690 H         1 DEP1        0.0000
    125 H16Y      -20.1770    2.2920   -3.6230 H         1 DEP1        0.0000
    126 C317      -21.5600    3.6060   -2.5950 C.3       1 DEP1        0.0000
    127 H17X      -20.9490    3.6510   -1.6660 H         1 DEP1        0.0000
    128 H17Y      -22.6330    3.6120   -2.2960 H         1 DEP1        0.0000
    129 C318      -21.2700    4.8470   -3.4490 C.3       1 DEP1        0.0000
    130 H18X      -21.8830    4.8010   -4.3780 H         1 DEP1        0.0000
    131 H18Y      -20.1990    4.8410   -3.7500 H         1 DEP1        0.0000
    132 C319      -21.5770    6.1580   -2.7110 C.3       1 DEP1        0.0000
    133 H19X      -20.9590    6.2080   -1.7860 H         1 DEP1        0.0000
    134 H19Y      -22.6470    6.1610   -2.4040 H         1 DEP1        0.0000
    135 C320      -21.2980    7.3990   -3.5700 C.3       1 DEP1        0.0000
    136 H20X      -21.9150    7.3490   -4.4950 H         1 DEP1        0.0000
    137 H20Y      -20.2280    7.3970   -3.8770 H         1 DEP1        0.0000
    138 C321      -21.6060    8.7090   -2.8330 C.3       1 DEP1        0.0000
    139 H21X      -20.9870    8.7540   -1.9080 H         1 DEP1        0.0000
    140 H21Y      -22.6750    8.7010   -2.5190 H         1 DEP1        0.0000
    141 C322      -21.3400    9.9580   -3.6780 C.3       1 DEP1        0.0000
    142 H22X      -21.9660    9.9470   -4.5960 H         1 DEP1        0.0000
    143 H22Y      -20.2720   10.0000   -3.9840 H         1 DEP1        0.0000
    144 H22Z      -21.5770   10.8780   -3.1020 H         1 DEP1        0.0000
@<TRIPOS>BOND
     1  142  141 1 
     2  136  135 1 
     3  130  129 1 
     4  124  123 1 
     5  119  118 1 
     6  143  141 1 
     7  137  135 1 
     8  131  129 1 
     9  141  144 1 
    10  141  138 1 
    11  117  116 1 
    12  125  123 1 
    13  135  138 1 
    14  135  132 1 
    15  129  132 1 
    16  129  126 1 
    17  112  110 1 
    18  111  110 1 
    19  123  126 1 
    20  123  120 1 
    21  118  116 2 
    22  118  120 1 
    23  105  104 1 
    24  116  113 1 
    25  106  104 1 
    26  138  140 1 
    27  138  139 1 
    28   99   98 1 
    29  110  113 1 
    30  110  107 1 
    31  132  134 1 
    32  132  133 1 
    33  100   98 1 
    34  126  128 1 
    35  126  127 1 
    36  120  122 1 
    37  120  121 1 
    38   93   92 1 
    39  104  107 1 
    40  104  101 1 
    41   94   92 1 
    42   87   86 1 
    43  113  114 1 
    44  113  115 1 
    45   98  101 1 
    46   98   95 1 
    47   23   22 2 
    48   88   86 1 
    49  107  108 1 
    50  107  109 1 
    51   92   95 1 
    52   92   89 1 
    53   20   18 1 
    54  101  103 1 
    55  101  102 1 
    56    2    1 2 
    57    9    7 1 
    58   86   89 1 
    59   86   24 1 
    60   95   97 1 
    61   95   96 1 
    62   22   24 1 
    63   22   21 1 
    64   89   91 1 
    65   89   90 1 
    66   11   10 1 
    67   18   21 1 
    68   18   10 1 
    69   18   19 1 
    70    7    6 1 
    71    7   10 1 
    72    7    8 1 
    73   24   26 1 
    74   24   25 1 
    75    1    6 1 
    76    1    4 1 
    77    1    3 1 
    78    5    4 1 
    79   10   12 1 
    80   14   13 2 
    81   12   13 1 
    82   13   15 1 
    83   15   16 1 
    84   15   17 1 
    85   15   27 1 
    86   29   27 1 
    87   28   27 1 
    88   27   30 1 
    89   30   31 1 
    90   30   32 1 
    91   30   33 1 
    92   34   33 1 
    93   35   33 1 
    94   33   36 1 
    95   36   38 1 
    96   36   37 1 
    97   36   39 1 
    98   40   39 1 
    99   41   39 1 
   100   39   42 1 
   101   46   45 1 
   102   42   44 1 
   103   42   43 1 
   104   42   45 1 
   105   47   45 1 
   106   45   48 1 
   107   52   51 1 
   108   48   50 1 
   109   48   51 1 
   110   48   49 1 
   111   53   51 1 
   112   51   54 1 
   113   58   57 1 
   114   54   56 1 
   115   54   57 1 
   116   54   55 1 
   117   57   59 2 
   118   66   64 1 
   119   72   70 1 
   120   59   60 1 
   121   59   61 1 
   122   78   76 1 
   123   65   64 1 
   124   64   61 1 
   125   64   67 1 
   126   84   82 1 
   127   71   70 1 
   128   70   67 1 
   129   70   73 1 
   130   61   62 1 
   131   61   63 1 
   132   77   76 1 
   133   76   73 1 
   134   76   79 1 
   135   67   68 1 
   136   67   69 1 
   137   83   82 1 
   138   82   79 1 
   139   82   85 1 
   140   73   74 1 
   141   73   75 1 
   142   79   80 1 
   143   79   81 1 
