@<TRIPOS>MOLECULE
C:\Users\Praveer\PycharmProjects\pdb_to_mol2_converter\data\pdb\depc.pdb
  162   161     0     0     0
SMALL
GASTEIGER

@<TRIPOS>ATOM
      1 N           1.5080   -0.0060   -0.0050 N.4       1 DEP1        0.0000
      2 C13         2.0050   -0.7230   -1.2210 C.3       1 DEP1        0.0000
      3 H13A        1.6490   -1.7440   -1.2440 H         1 DEP1        0.0000
      4 H13B        3.0860   -0.7260   -1.2600 H         1 DEP1        0.0000
      5 H13C        1.6410   -0.2200   -2.1120 H         1 DEP1        0.0000
      6 C14         1.9860   -0.6880    1.2410 C.3       1 DEP1        0.0000
      7 H14A        3.0660   -0.7000    1.2960 H         1 DEP1        0.0000
      8 H14B        1.6250   -1.7080    1.2850 H         1 DEP1        0.0000
      9 H14C        1.6060   -0.1660    2.1160 H         1 DEP1        0.0000
     10 C15         0.0050   -0.0150    0.0040 C.3       1 DEP1        0.0000
     11 H15A       -0.4180   -1.0030    0.0010 H         1 DEP1        0.0000
     12 H15B       -0.3940    0.5540   -0.8400 H         1 DEP1        0.0000
     13 H15C       -0.3700    0.5430    0.8660 H         1 DEP1        0.0000
     14 C12         1.9740    1.4430   -0.0090 C.3       1 DEP1        0.0000
     15 H12A        3.0410    1.5180    0.1320 H         1 DEP1        0.0000
     16 H12B        1.5180    1.9490    0.8500 H         1 DEP1        0.0000
     17 C11         1.5700    2.3000   -1.2250 C.3       1 DEP1        0.0000
     18 H11A        0.8990    1.7650   -1.9340 H         1 DEP1        0.0000
     19 H11B        2.4850    2.5730   -1.7970 H         1 DEP1        0.0000
     20 P          -0.4600    3.3750   -0.0380 P.3       1 DEP1        0.0000
     21 O13        -1.3440    2.5570   -0.8980 O.2       1 DEP1        0.0000
     22 O14        -0.2150    2.8410    1.3230 O.3       1 DEP1        0.0000
     23 O12         0.9530    3.4930   -0.7520 O.3       1 DEP1        0.0000
     24 O11        -0.9790    4.8660    0.0320 O.3       1 DEP1        0.0000
     25 C1         -2.3500    5.0850    0.3790 C.3       1 DEP1        0.0000
     26 HA         -2.6390    4.5040    1.2880 H         1 DEP1        0.0000
     27 HB         -3.0100    4.7810   -0.4660 H         1 DEP1        0.0000
     28 C2         -2.6060    6.5820    0.6930 C.3       1 DEP1        0.0000
     29 HS         -2.3110    7.1560   -0.2190 H         1 DEP1        0.0000
     30 O21        -1.8150    6.9390    1.8430 O.3       1 DEP1        0.0000
     31 C21        -1.3770    8.1810    1.8610 C.2       1 DEP1        0.0000
     32 O22        -1.5800    9.0350    1.0160 O.2       1 DEP1        0.0000
     33 C22        -0.5820    8.4000    3.1490 C.3       1 DEP1        0.0000
     34 H2R         0.2730    7.6930    3.1470 H         1 DEP1        0.0000
     35 H2S        -1.2470    8.1510    4.0020 H         1 DEP1        0.0000
     36 C3         -4.1150    6.8340    0.9830 C.3       1 DEP1        0.0000
     37 HX         -4.3910    6.1730    1.8350 H         1 DEP1        0.0000
     38 HY         -4.7220    6.5020    0.1090 H         1 DEP1        0.0000
     39 O31        -4.3870    8.1990    1.3660 O.3       1 DEP1        0.0000
     40 C31        -4.6050    9.0370    0.3550 C.2       1 DEP1        0.0000
     41 O32        -4.7230    8.7220   -0.8150 O.2       1 DEP1        0.0000
     42 C32        -4.7070   10.4570    0.9130 C.3       1 DEP1        0.0000
     43 H2X        -3.6850   10.7660    1.2180 H         1 DEP1        0.0000
     44 H2Y        -5.3530   10.4280    1.8150 H         1 DEP1        0.0000
     45 C23        -0.0760    9.8530    3.2800 C.3       1 DEP1        0.0000
     46 H3R        -0.9360   10.5570    3.1970 H         1 DEP1        0.0000
     47 H3S         0.6250   10.0820    2.4460 H         1 DEP1        0.0000
     48 C24         0.6320   10.1070    4.6170 C.3       1 DEP1        0.0000
     49 H4R         1.5000    9.4170    4.7130 H         1 DEP1        0.0000
     50 H4S        -0.0730    9.8820    5.4490 H         1 DEP1        0.0000
     51 C25         1.1200   11.5560    4.7540 C.3       1 DEP1        0.0000
     52 H5R         0.2570   12.2440    4.6070 H         1 DEP1        0.0000
     53 H5S         1.8620   11.7690    3.9520 H         1 DEP1        0.0000
     54 C26         1.7560   11.8420    6.1210 C.3       1 DEP1        0.0000
     55 H6R         2.6190   11.1570    6.2760 H         1 DEP1        0.0000
     56 H6S         1.0090   11.6300    6.9190 H         1 DEP1        0.0000
     57 C27         2.2330   13.2940    6.2560 C.3       1 DEP1        0.0000
     58 H7R         1.3750   13.9780    6.0640 H         1 DEP1        0.0000
     59 H7S         3.0060   13.4970    5.4810 H         1 DEP1        0.0000
     60 C28         2.8140   13.6020    7.6420 C.3       1 DEP1        0.0000
     61 H8R         3.6630   12.9130    7.8460 H         1 DEP1        0.0000
     62 H8S         2.0320   13.4140    8.4120 H         1 DEP1        0.0000
     63 C29         3.3020   15.0520    7.7680 C.3       1 DEP1        0.0000
     64 H9R         2.4600   15.7410    7.5300 H         1 DEP1        0.0000
     65 H9S         4.1070   15.2310    7.0200 H         1 DEP1        0.0000
     66 C210        3.8330   15.3800    9.1700 C.3       1 DEP1        0.0000
     67 H10R        4.6670   14.6850    9.4170 H         1 DEP1        0.0000
     68 H10S        3.0210   15.2130    9.9130 H         1 DEP1        0.0000
     69 C211        4.3330   16.8270    9.2880 C.3       1 DEP1        0.0000
     70 H11R        3.5050   17.5140    9.0000 H         1 DEP1        0.0000
     71 H11S        5.1660   16.9750    8.5630 H         1 DEP1        0.0000
     72 C212        4.8180   17.1660   10.7090 C.3       1 DEP1        0.0000
     73 H12R        5.6010   16.4250   10.9850 H         1 DEP1        0.0000
     74 H12S        3.9700   17.0200   11.4150 H         1 DEP1        0.0000
     75 C213        5.3230   18.5860   10.7980 C.2       1 DEP1        0.0000
     76 H13R        4.6250   19.3470   10.4150 H         1 DEP1        0.0000
     77 C214        6.5250   18.9840   11.2580 C.2       1 DEP1        0.0000
     78 H14R        6.7680   20.0580   11.2470 H         1 DEP1        0.0000
     79 C215        7.6070   18.0950   11.8210 C.3       1 DEP1        0.0000
     80 H15R        7.1810   17.1680   12.2680 H         1 DEP1        0.0000
     81 H15S        8.1380   18.6210   12.6450 H         1 DEP1        0.0000
     82 C216        8.6360   17.6840   10.7530 C.3       1 DEP1        0.0000
     83 H16R        9.1090   18.5920   10.3160 H         1 DEP1        0.0000
     84 H16S        8.1190   17.1410    9.9300 H         1 DEP1        0.0000
     85 C217        9.7370   16.7780   11.3240 C.3       1 DEP1        0.0000
     86 H17R        9.2670   15.8690   11.7620 H         1 DEP1        0.0000
     87 H17S       10.2620   17.3160   12.1450 H         1 DEP1        0.0000
     88 C218       10.7630   16.3510   10.2660 C.3       1 DEP1        0.0000
     89 H18R       11.2350   17.2600    9.8290 H         1 DEP1        0.0000
     90 H18S       10.2370   15.8150    9.4450 H         1 DEP1        0.0000
     91 C219       11.8580   15.4420   10.8410 C.3       1 DEP1        0.0000
     92 H19R       11.3850   14.5330   11.2750 H         1 DEP1        0.0000
     93 H19S       12.3790   15.9780   11.6660 H         1 DEP1        0.0000
     94 C220       12.8900   15.0170    9.7880 C.3       1 DEP1        0.0000
     95 H20R       13.3610   15.9270    9.3520 H         1 DEP1        0.0000
     96 H20S       12.3700   14.4780    8.9640 H         1 DEP1        0.0000
     97 C221       13.9860   14.1130   10.3650 C.3       1 DEP1        0.0000
     98 H21R       13.5090   13.2060   10.8030 H         1 DEP1        0.0000
     99 H21S       14.4960   14.6540   11.1950 H         1 DEP1        0.0000
    100 C222       15.0280   13.6830    9.3290 C.3       1 DEP1        0.0000
    101 H22R       15.5350   14.5730    8.8960 H         1 DEP1        0.0000
    102 H22S       14.5440   13.1180    8.5030 H         1 DEP1        0.0000
    103 H22T       15.7980   13.0330    9.7960 H         1 DEP1        0.0000
    104 C33        -5.2750   11.4670   -0.1080 C.3       1 DEP1        0.0000
    105 H3X        -6.2880   11.1370   -0.4360 H         1 DEP1        0.0000
    106 H3Y        -4.6220   11.4980   -1.0100 H         1 DEP1        0.0000
    107 C34        -5.3800   12.8770    0.4860 C.3       1 DEP1        0.0000
    108 H4X        -4.3620   13.2300    0.7690 H         1 DEP1        0.0000
    109 H4Y        -5.9920   12.8340    1.4160 H         1 DEP1        0.0000
    110 C35        -6.0160   13.8900   -0.4760 C.3       1 DEP1        0.0000
    111 H5X        -7.0310   13.5310   -0.7580 H         1 DEP1        0.0000
    112 H5Y        -5.4070   13.9490   -1.4050 H         1 DEP1        0.0000
    113 C36        -6.1340   15.2890    0.1450 C.3       1 DEP1        0.0000
    114 H6X        -5.1160   15.6680    0.3890 H         1 DEP1        0.0000
    115 H6Y        -6.7030   15.2130    1.0990 H         1 DEP1        0.0000
    116 C37        -6.8430   16.2940   -0.7730 C.3       1 DEP1        0.0000
    117 H7X        -7.8570   15.9050   -1.0180 H         1 DEP1        0.0000
    118 H7Y        -6.2760   16.3860   -1.7270 H         1 DEP1        0.0000
    119 C38        -6.9810   17.6810   -0.1290 C.3       1 DEP1        0.0000
    120 H8X        -5.9680   18.0930    0.0760 H         1 DEP1        0.0000
    121 H8Y        -7.5060   17.5730    0.8470 H         1 DEP1        0.0000
    122 C39        -7.7640   18.6690   -1.0050 C.3       1 DEP1        0.0000
    123 H9X        -8.7720   18.2450   -1.2120 H         1 DEP1        0.0000
    124 H9Y        -7.2420   18.7930   -1.9800 H         1 DEP1        0.0000
    125 C310       -7.9280   20.0430   -0.3390 C.3       1 DEP1        0.0000
    126 H10X       -6.9240   20.4940   -0.1770 H         1 DEP1        0.0000
    127 H10Y       -8.4020   19.9060    0.6590 H         1 DEP1        0.0000
    128 C311       -8.7900   21.0060   -1.1690 C.3       1 DEP1        0.0000
    129 H11X       -9.7830   20.5320   -1.3370 H         1 DEP1        0.0000
    130 H11Y       -8.3100   21.1560   -2.1630 H         1 DEP1        0.0000
    131 C312       -8.9750   22.3690   -0.4760 C.3       1 DEP1        0.0000
    132 H12X       -7.9670   22.8140   -0.3260 H         1 DEP1        0.0000
    133 H12Y       -9.4020   22.1930    0.5370 H         1 DEP1        0.0000
    134 C313       -9.8930   23.2750   -1.2620 C.2       1 DEP1        0.0000
    135 H13X      -10.8980   22.8590   -1.4360 H         1 DEP1        0.0000
    136 C314       -9.6070   24.4900   -1.7680 C.2       1 DEP1        0.0000
    137 H14X      -10.3900   25.0210   -2.3320 H         1 DEP1        0.0000
    138 C315       -8.3040   25.2440   -1.6540 C.3       1 DEP1        0.0000
    139 H15X       -7.6370   24.8150   -0.8750 H         1 DEP1        0.0000
    140 H15Y       -8.5030   26.2960   -1.3510 H         1 DEP1        0.0000
    141 C316       -7.5370   25.2560   -2.9890 C.3       1 DEP1        0.0000
    142 H16X       -8.1690   25.7130   -3.7830 H         1 DEP1        0.0000
    143 H16Y       -7.3100   24.2090   -3.2950 H         1 DEP1        0.0000
    144 C317       -6.2190   26.0380   -2.8990 C.3       1 DEP1        0.0000
    145 H17X       -5.5740   25.5780   -2.1170 H         1 DEP1        0.0000
    146 H17Y       -6.4360   27.0840   -2.5860 H         1 DEP1        0.0000
    147 C318       -5.4550   26.0620   -4.2300 C.3       1 DEP1        0.0000
    148 H18X       -6.1000   26.5240   -5.0110 H         1 DEP1        0.0000
    149 H18Y       -5.2380   25.0170   -4.5450 H         1 DEP1        0.0000
    150 C319       -4.1370   26.8450   -4.1410 C.3       1 DEP1        0.0000
    151 H19X       -3.4890   26.3790   -3.3650 H         1 DEP1        0.0000
    152 H19Y       -4.3550   27.8880   -3.8190 H         1 DEP1        0.0000
    153 C320       -3.3790   26.8800   -5.4750 C.3       1 DEP1        0.0000
    154 H20X       -4.0280   27.3460   -6.2510 H         1 DEP1        0.0000
    155 H20Y       -3.1610   25.8380   -5.7990 H         1 DEP1        0.0000
    156 C321       -2.0630   27.6640   -5.3870 C.3       1 DEP1        0.0000
    157 H21X       -1.4190   27.1960   -4.6090 H         1 DEP1        0.0000
    158 H21Y       -2.2870   28.7030   -5.0530 H         1 DEP1        0.0000
    159 C322       -1.2980   27.7160   -6.7120 C.3       1 DEP1        0.0000
    160 H22X       -1.9140   28.2030   -7.4980 H         1 DEP1        0.0000
    161 H22Y       -1.0420   26.6890   -7.0530 H         1 DEP1        0.0000
    162 H22Z       -0.3550   28.2930   -6.5960 H         1 DEP1        0.0000
@<TRIPOS>BOND
     1  160  159 1 
     2  161  159 1 
     3  159  162 1 
     4  159  156 1 
     5  154  153 1 
     6  155  153 1 
     7  153  156 1 
     8  153  150 1 
     9  156  158 1 
    10  156  157 1 
    11  148  147 1 
    12  149  147 1 
    13  147  150 1 
    14  147  144 1 
    15  150  152 1 
    16  150  151 1 
    17  142  141 1 
    18  143  141 1 
    19  141  144 1 
    20  141  138 1 
    21  144  146 1 
    22  144  145 1 
    23  137  136 1 
    24  130  128 1 
    25    5    2 1 
    26  124  122 1 
    27   18   17 1 
    28   19   17 1 
    29  136  138 1 
    30  136  134 2 
    31  118  116 1 
    32  138  140 1 
    33  138  139 1 
    34  135  134 1 
    35  112  110 1 
    36  129  128 1 
    37  134  131 1 
    38    4    2 1 
    39    3    2 1 
    40   17   23 1 
    41   17   14 1 
    42    2    1 1 
    43  123  122 1 
    44  128  131 1 
    45  128  125 1 
    46  117  116 1 
    47  106  104 1 
    48  122  125 1 
    49  122  119 1 
    50   21   20 2 
    51   12   10 1 
    52   41   40 2 
    53  116  119 1 
    54  116  113 1 
    55  111  110 1 
    56   23   20 1 
    57  131  132 1 
    58  131  133 1 
    59  110  113 1 
    60  110  107 1 
    61   27   25 1 
    62  105  104 1 
    63  125  126 1 
    64  125  127 1 
    65   29   28 1 
    66  119  120 1 
    67  119  121 1 
    68  104  107 1 
    69  104   42 1 
    70   20   24 1 
    71   20   22 1 
    72   14    1 1 
    73   14   15 1 
    74   14   16 1 
    75    1   10 1 
    76    1    6 1 
    77   11   10 1 
    78   10   13 1 
    79   24   25 1 
    80   38   36 1 
    81  113  114 1 
    82  113  115 1 
    83   40   42 1 
    84   40   39 1 
    85   25   28 1 
    86   25   26 1 
    87  107  108 1 
    88  107  109 1 
    89   28   36 1 
    90   28   30 1 
    91   42   43 1 
    92   42   44 1 
    93   36   39 1 
    94   36   37 1 
    95   32   31 2 
    96    6    8 1 
    97    6    7 1 
    98    6    9 1 
    99   30   31 1 
   100   31   33 1 
   101   47   45 1 
   102   34   33 1 
   103   33   45 1 
   104   33   35 1 
   105   46   45 1 
   106   45   48 1 
   107   53   51 1 
   108   52   51 1 
   109   48   49 1 
   110   48   51 1 
   111   48   50 1 
   112   51   54 1 
   113   59   57 1 
   114   58   57 1 
   115   54   57 1 
   116   54   55 1 
   117   54   56 1 
   118   57   60 1 
   119   65   63 1 
   120   64   63 1 
   121   60   63 1 
   122   60   61 1 
   123   60   62 1 
   124   63   66 1 
   125  102  100 1 
   126   71   69 1 
   127  101  100 1 
   128   96   94 1 
   129   70   69 1 
   130   66   69 1 
   131   66   67 1 
   132   66   68 1 
   133   69   72 1 
   134  100  103 1 
   135  100   97 1 
   136   95   94 1 
   137   90   88 1 
   138   94   97 1 
   139   94   91 1 
   140   89   88 1 
   141   84   82 1 
   142   88   91 1 
   143   88   85 1 
   144   83   82 1 
   145   97   98 1 
   146   97   99 1 
   147   76   75 1 
   148   72   75 1 
   149   72   73 1 
   150   72   74 1 
   151   82   85 1 
   152   82   79 1 
   153   75   77 2 
   154   91   92 1 
   155   91   93 1 
   156   78   77 1 
   157   77   79 1 
   158   85   86 1 
   159   85   87 1 
   160   79   80 1 
   161   79   81 1 
