@<TRIPOS>MOLECULE
C:\Users\Praveer\PycharmProjects\pdb_to_mol2_converter\data\pdb\depe.pdb
  153   152     0     0     0
SMALL
GASTEIGER

@<TRIPOS>ATOM
      1 N           1.0300    0.4160   -0.7030 N.4       1 DEP1        0.0000
      2 HN1         0.0460    0.2840   -0.4220 H         1 DEP1        0.0000
      3 HN2         1.4940   -0.4930   -0.8840 H         1 DEP1        0.0000
      4 HN3         1.0420    0.9390   -1.6310 H         1 DEP1        0.0000
      5 C12         1.8360    1.2540    0.2650 C.3       1 DEP1        0.0000
      6 H12A        1.9340    0.6950    1.2170 H         1 DEP1        0.0000
      7 H12B        1.2600    2.1850    0.4380 H         1 DEP1        0.0000
      8 C11         3.2380    1.6280   -0.2720 C.3       1 DEP1        0.0000
      9 H11A        3.8740    0.7230   -0.4170 H         1 DEP1        0.0000
     10 H11B        3.7500    2.2310    0.5110 H         1 DEP1        0.0000
     11 P           2.8640    1.7830   -2.8510 P.3       1 DEP1        0.0000
     12 O13         3.4150    0.4180   -2.8320 O.3       1 DEP1        0.0000
     13 O14         1.3830    1.8320   -2.9440 O.2       1 DEP1        0.0000
     14 O12         3.1800    2.4350   -1.4480 O.3       1 DEP1        0.0000
     15 O11         3.5650    2.7080   -3.9110 O.3       1 DEP1        0.0000
     16 C1          3.2440    2.5640   -5.2970 C.3       1 DEP1        0.0000
     17 HA          2.1390    2.5620   -5.4670 H         1 DEP1        0.0000
     18 HB          3.6750    1.6150   -5.6910 H         1 DEP1        0.0000
     19 C2          3.8370    3.7550   -6.0930 C.3       1 DEP1        0.0000
     20 HS          4.9200    3.8160   -5.8220 H         1 DEP1        0.0000
     21 O21         3.1040    4.9350   -5.7120 O.3       1 DEP1        0.0000
     22 C21         3.8090    6.0490   -5.6810 C.2       1 DEP1        0.0000
     23 O22         4.9990    6.1590   -5.9070 O.2       1 DEP1        0.0000
     24 C22         2.8680    7.2080   -5.3500 C.3       1 DEP1        0.0000
     25 H2R         2.4750    7.0500   -4.3250 H         1 DEP1        0.0000
     26 H2S         2.0200    7.1700   -6.0650 H         1 DEP1        0.0000
     27 C3          3.7280    3.5370   -7.6310 C.3       1 DEP1        0.0000
     28 HX          2.6500    3.3720   -7.8570 H         1 DEP1        0.0000
     29 HY          4.2620    2.6000   -7.9100 H         1 DEP1        0.0000
     30 O31         4.1780    4.6860   -8.3840 O.3       1 DEP1        0.0000
     31 C31         5.4740    4.6970   -8.6950 C.2       1 DEP1        0.0000
     32 O32         6.2580    3.7900   -8.4940 O.2       1 DEP1        0.0000
     33 C32         5.8030    6.0280   -9.3780 C.3       1 DEP1        0.0000
     34 H2X         5.7510    6.8200   -8.6020 H         1 DEP1        0.0000
     35 H2Y         5.0210    6.2250  -10.1390 H         1 DEP1        0.0000
     36 C23         3.5810    8.5740   -5.4490 C.3       1 DEP1        0.0000
     37 H3R         4.0220    8.6920   -6.4670 H         1 DEP1        0.0000
     38 H3S         4.4190    8.6110   -4.7160 H         1 DEP1        0.0000
     39 C24         2.6270    9.7470   -5.1860 C.3       1 DEP1        0.0000
     40 H4R         2.1770    9.6280   -4.1750 H         1 DEP1        0.0000
     41 H4S         1.8010    9.7120   -5.9310 H         1 DEP1        0.0000
     42 C25         3.3220   11.1150   -5.2700 C.3       1 DEP1        0.0000
     43 H5R         3.8060   11.2140   -6.2670 H         1 DEP1        0.0000
     44 H5S         4.1240   11.1610   -4.4990 H         1 DEP1        0.0000
     45 C26         2.3530   12.2900   -5.0640 C.3       1 DEP1        0.0000
     46 H6R         1.8640   12.1880   -4.0690 H         1 DEP1        0.0000
     47 H6S         1.5560   12.2380   -5.8390 H         1 DEP1        0.0000
     48 C27         3.0450   13.6610   -5.1470 C.3       1 DEP1        0.0000
     49 H7R         3.5650   13.7430   -6.1280 H         1 DEP1        0.0000
     50 H7S         3.8180   13.7240   -4.3490 H         1 DEP1        0.0000
     51 C28         2.0710   14.8420   -5.0010 C.3       1 DEP1        0.0000
     52 H8R         1.5360   14.7570   -4.0290 H         1 DEP1        0.0000
     53 H8S         1.3100   14.7850   -5.8120 H         1 DEP1        0.0000
     54 C29         2.7710   16.2100   -5.0700 C.3       1 DEP1        0.0000
     55 H9R         3.3410   16.2770   -6.0230 H         1 DEP1        0.0000
     56 H9S         3.5020   16.2860   -4.2340 H         1 DEP1        0.0000
     57 C210        1.7940   17.3940   -4.9920 C.3       1 DEP1        0.0000
     58 H10R        1.2200   17.3330   -4.0400 H         1 DEP1        0.0000
     59 H10S        1.0670   17.3200   -5.8310 H         1 DEP1        0.0000
     60 C211        2.5000   18.7590   -5.0610 C.3       1 DEP1        0.0000
     61 H11R        3.1000   18.8030   -5.9980 H         1 DEP1        0.0000
     62 H11S        3.2030   18.8390   -4.2020 H         1 DEP1        0.0000
     63 C212        1.5120   19.9430   -5.0280 C.3       1 DEP1        0.0000
     64 H12R        0.8860   19.8340   -4.1140 H         1 DEP1        0.0000
     65 H12S        0.8270   19.8560   -5.9000 H         1 DEP1        0.0000
     66 C213        2.2270   21.2730   -5.0670 C.2       1 DEP1        0.0000
     67 H13R        2.9530   21.3810   -5.8880 H         1 DEP1        0.0000
     68 C214        2.0800   22.2920   -4.1980 C.2       1 DEP1        0.0000
     69 H14R        2.6850   23.2020   -4.3390 H         1 DEP1        0.0000
     70 C215        1.1370   22.3350   -3.0200 C.3       1 DEP1        0.0000
     71 H15R        0.2500   21.6830   -3.1840 H         1 DEP1        0.0000
     72 H15S        0.7440   23.3680   -2.8870 H         1 DEP1        0.0000
     73 C216        1.8210   21.8970   -1.7120 C.3       1 DEP1        0.0000
     74 H16R        2.6940   22.5550   -1.5040 H         1 DEP1        0.0000
     75 H16S        2.2000   20.8550   -1.8250 H         1 DEP1        0.0000
     76 C217        0.8660   21.9460   -0.5100 C.3       1 DEP1        0.0000
     77 H17R       -0.0110   21.2920   -0.7170 H         1 DEP1        0.0000
     78 H17S        0.4900   22.9860   -0.3860 H         1 DEP1        0.0000
     79 C218        1.5310   21.4920    0.7960 C.3       1 DEP1        0.0000
     80 H18R        2.4050   22.1480    1.0080 H         1 DEP1        0.0000
     81 H18S        1.9120   20.4530    0.6690 H         1 DEP1        0.0000
     82 C219        0.5700   21.5320    1.9930 C.3       1 DEP1        0.0000
     83 H19R       -0.3010   20.8720    1.7810 H         1 DEP1        0.0000
     84 H19S        0.1870   22.5690    2.1170 H         1 DEP1        0.0000
     85 C220        1.2340   21.0820    3.3020 C.3       1 DEP1        0.0000
     86 H20R        2.1070   21.7390    3.5130 H         1 DEP1        0.0000
     87 H20S        1.6150   20.0430    3.1800 H         1 DEP1        0.0000
     88 C221        0.2730   21.1260    4.4980 C.3       1 DEP1        0.0000
     89 H21R       -0.5990   20.4680    4.2810 H         1 DEP1        0.0000
     90 H21S       -0.1120   22.1650    4.6090 H         1 DEP1        0.0000
     91 C222        0.9200   20.6850    5.8140 C.3       1 DEP1        0.0000
     92 H22R        1.7800   21.3430    6.0630 H         1 DEP1        0.0000
     93 H22S        1.2900   19.6400    5.7350 H         1 DEP1        0.0000
     94 H22T        0.1860   20.7370    6.6460 H         1 DEP1        0.0000
     95 C33         7.1980    6.0430  -10.0490 C.3       1 DEP1        0.0000
     96 H3X         7.2630    5.2160  -10.7920 H         1 DEP1        0.0000
     97 H3Y         7.9850    5.8680   -9.2810 H         1 DEP1        0.0000
     98 C34         7.4780    7.3750  -10.7630 C.3       1 DEP1        0.0000
     99 H4X         7.4550    8.1990  -10.0150 H         1 DEP1        0.0000
    100 H4Y         6.6650    7.5650  -11.5000 H         1 DEP1        0.0000
    101 C35         8.8270    7.4030  -11.5000 C.3       1 DEP1        0.0000
    102 H5X         8.8470    6.5790  -12.2490 H         1 DEP1        0.0000
    103 H5Y         9.6470    7.2170  -10.7710 H         1 DEP1        0.0000
    104 C36         9.0820    8.7390  -12.2180 C.3       1 DEP1        0.0000
    105 H6X         9.1060    9.5580  -11.4640 H         1 DEP1        0.0000
    106 H6Y         8.2340    8.9420  -12.9100 H         1 DEP1        0.0000
    107 C37        10.3920    8.7570  -13.0240 C.3       1 DEP1        0.0000
    108 H7X        10.3660    7.9310  -13.7700 H         1 DEP1        0.0000
    109 H7Y        11.2480    8.5680  -12.3390 H         1 DEP1        0.0000
    110 C38        10.6200   10.0870  -13.7610 C.3       1 DEP1        0.0000
    111 H8X        10.6960   10.9100  -13.0170 H         1 DEP1        0.0000
    112 H8Y         9.7370   10.2960  -14.4070 H         1 DEP1        0.0000
    113 C39        11.8820   10.0810  -14.6390 C.3       1 DEP1        0.0000
    114 H9X        11.8030    9.2500  -15.3760 H         1 DEP1        0.0000
    115 H9Y        12.7730    9.8860  -14.0030 H         1 DEP1        0.0000
    116 C310       12.0840   11.4010  -15.4000 C.3       1 DEP1        0.0000
    117 H10X       12.2200   12.2290  -14.6690 H         1 DEP1        0.0000
    118 H10Y       11.1680   11.6210  -15.9930 H         1 DEP1        0.0000
    119 C311       13.2900   11.3650  -16.3520 C.3       1 DEP1        0.0000
    120 H11X       13.1520   10.5200  -17.0640 H         1 DEP1        0.0000
    121 H11Y       14.2120   11.1640  -15.7600 H         1 DEP1        0.0000
    122 C312       13.4620   12.6800  -17.1370 C.3       1 DEP1        0.0000
    123 H12X       13.5970   13.5000  -16.3970 H         1 DEP1        0.0000
    124 H12Y       12.5140   12.8930  -17.6800 H         1 DEP1        0.0000
    125 C313       14.6040   12.5990  -18.1220 C.2       1 DEP1        0.0000
    126 H13X       14.5050   11.7920  -18.8650 H         1 DEP1        0.0000
    127 C314       15.7000   13.3820  -18.1680 C.2       1 DEP1        0.0000
    128 H14X       16.4540   13.1830  -18.9460 H         1 DEP1        0.0000
    129 C315       16.0380   14.5340  -17.2540 C.3       1 DEP1        0.0000
    130 H15X       15.1620   14.8690  -16.6580 H         1 DEP1        0.0000
    131 H15Y       16.3590   15.4120  -17.8590 H         1 DEP1        0.0000
    132 C316       17.1720   14.1700  -16.2780 C.3       1 DEP1        0.0000
    133 H16X       18.0750   13.8580  -16.8500 H         1 DEP1        0.0000
    134 H16Y       16.8540   13.3090  -15.6470 H         1 DEP1        0.0000
    135 C317       17.5530   15.3400  -15.3600 C.3       1 DEP1        0.0000
    136 H17X       16.6580   15.6490  -14.7730 H         1 DEP1        0.0000
    137 H17Y       17.8630   16.2080  -15.9850 H         1 DEP1        0.0000
    138 C318       18.6910   14.9860  -14.3930 C.3       1 DEP1        0.0000
    139 H18X       19.5850   14.6800  -14.9810 H         1 DEP1        0.0000
    140 H18Y       18.3820   14.1170  -13.7700 H         1 DEP1        0.0000
    141 C319       19.0720   16.1540  -13.4720 C.3       1 DEP1        0.0000
    142 H19X       18.1800   16.4550  -12.8790 H         1 DEP1        0.0000
    143 H19Y       19.3750   17.0250  -14.0960 H         1 DEP1        0.0000
    144 C320       20.2180   15.8010  -12.5130 C.3       1 DEP1        0.0000
    145 H20X       21.1100   15.4990  -13.1070 H         1 DEP1        0.0000
    146 H20Y       19.9160   14.9310  -11.8890 H         1 DEP1        0.0000
    147 C321       20.6010   16.9680  -11.5930 C.3       1 DEP1        0.0000
    148 H21X       19.7050   17.2680  -11.0030 H         1 DEP1        0.0000
    149 H21Y       20.8920   17.8400  -12.2230 H         1 DEP1        0.0000
    150 C322       21.7470   16.6350  -10.6340 C.3       1 DEP1        0.0000
    151 H22X       22.6610   16.3570  -11.2030 H         1 DEP1        0.0000
    152 H22Y       21.4700   15.7820   -9.9780 H         1 DEP1        0.0000
    153 H22Z       21.9860   17.5100   -9.9920 H         1 DEP1        0.0000
@<TRIPOS>BOND
     1  128  127 1 
     2  126  125 1 
     3  127  125 2 
     4  127  129 1 
     5  125  122 1 
     6  131  129 1 
     7  124  122 1 
     8  129  130 1 
     9  129  132 1 
    10  122  123 1 
    11  122  119 1 
    12  120  119 1 
    13  133  132 1 
    14  119  121 1 
    15  119  116 1 
    16  132  134 1 
    17  132  135 1 
    18  118  116 1 
    19  137  135 1 
    20  116  117 1 
    21  116  113 1 
    22  114  113 1 
    23  135  136 1 
    24  135  138 1 
    25  139  138 1 
    26  113  115 1 
    27  113  110 1 
    28  112  110 1 
    29  138  140 1 
    30  138  141 1 
    31  143  141 1 
    32  108  107 1 
    33  110  107 1 
    34  110  111 1 
    35  141  142 1 
    36  141  144 1 
    37  145  144 1 
    38  107  109 1 
    39  107  104 1 
    40  106  104 1 
    41  144  146 1 
    42  144  147 1 
    43  102  101 1 
    44  149  147 1 
    45  104  101 1 
    46  104  105 1 
    47  147  148 1 
    48  147  150 1 
    49  101  103 1 
    50  101   98 1 
    51  100   98 1 
    52  151  150 1 
    53   96   95 1 
    54   98   95 1 
    55   98   99 1 
    56  150  153 1 
    57  150  152 1 
    58   35   33 1 
    59   95   33 1 
    60   95   97 1 
    61   33   31 1 
    62   33   34 1 
    63   31   32 2 
    64   31   30 1 
    65   30   27 1 
    66   29   27 1 
    67   28   27 1 
    68   27   19 1 
    69   37   36 1 
    70   43   42 1 
    71   49   48 1 
    72   19   20 1 
    73   19   21 1 
    74   19   16 1 
    75   26   24 1 
    76   55   54 1 
    77   61   60 1 
    78   41   39 1 
    79   23   22 2 
    80   65   63 1 
    81   67   66 1 
    82   47   45 1 
    83   59   57 1 
    84   53   51 1 
    85   21   22 1 
    86   18   16 1 
    87   22   24 1 
    88   17   16 1 
    89   36   24 1 
    90   36   39 1 
    91   36   38 1 
    92   24   25 1 
    93   16   15 1 
    94   42   39 1 
    95   42   45 1 
    96   42   44 1 
    97   39   40 1 
    98   48   45 1 
    99   48   51 1 
   100   48   50 1 
   101   54   51 1 
   102   54   57 1 
   103   54   56 1 
   104   66   63 1 
   105   66   68 2 
   106   45   46 1 
   107   60   63 1 
   108   60   57 1 
   109   60   62 1 
   110   63   64 1 
   111   51   52 1 
   112   57   58 1 
   113   69   68 1 
   114   68   70 1 
   115   15   11 1 
   116   71   70 1 
   117   70   72 1 
   118   70   73 1 
   119   13   11 2 
   120   11   12 1 
   121   11   14 1 
   122   75   73 1 
   123   73   74 1 
   124   73   76 1 
   125    4    1 1 
   126   14    8 1 
   127    3    1 1 
   128   77   76 1 
   129    1    2 1 
   130    1    5 1 
   131   76   78 1 
   132   76   79 1 
   133    9    8 1 
   134    8    5 1 
   135    8   10 1 
   136    5    7 1 
   137    5    6 1 
   138   81   79 1 
   139   79   80 1 
   140   79   82 1 
   141   83   82 1 
   142   82   84 1 
   143   82   85 1 
   144   87   85 1 
   145   85   86 1 
   146   85   88 1 
   147   89   88 1 
   148   88   90 1 
   149   88   91 1 
   150   93   91 1 
   151   91   92 1 
   152   91   94 1 
