@<TRIPOS>MOLECULE
C:\Users\Praveer\PycharmProjects\pdb_to_mol2_converter\data\pdb\depg.pdb
  155   154     0     0     0
SMALL
GASTEIGER

@<TRIPOS>ATOM
      1 C13        -0.1220    0.0550    0.1680 C.3       1 DEP1        0.0000
      2 H13A       -0.5370    0.2990   -0.8370 H         1 DEP1        0.0000
      3 H13B       -0.5620   -0.9070    0.5100 H         1 DEP1        0.0000
      4 OC3        -0.4690    1.1090    1.0640 O.3       1 DEP1        0.0000
      5 HO3        -0.0380    1.8830    0.6640 H         1 DEP1        0.0000
      6 C12         1.4190   -0.0770    0.0490 C.3       1 DEP1        0.0000
      7 H12A        1.7980   -0.5810    0.9650 H         1 DEP1        0.0000
      8 OC2         1.7540   -0.8970   -1.0660 O.3       1 DEP1        0.0000
      9 HO2         1.6010   -0.3210   -1.8490 H         1 DEP1        0.0000
     10 C11         2.1320    1.3030   -0.0650 C.3       1 DEP1        0.0000
     11 H11A        3.1850    1.1640   -0.4120 H         1 DEP1        0.0000
     12 H11B        2.1940    1.7210    0.9650 H         1 DEP1        0.0000
     13 P           1.6670    2.2630   -2.4350 P.3       1 DEP1        0.0000
     14 O13         3.0420    2.7430   -2.6780 O.3       1 DEP1        0.0000
     15 O14         1.3030    0.9330   -2.9780 O.2       1 DEP1        0.0000
     16 O12         1.3940    2.2350   -0.8700 O.3       1 DEP1        0.0000
     17 O11         0.6360    3.3530   -2.9580 O.3       1 DEP1        0.0000
     18 C1          0.7050    3.6960   -4.3490 C.3       1 DEP1        0.0000
     19 HA          0.3780    2.8330   -4.9750 H         1 DEP1        0.0000
     20 HB          1.7460    3.9770   -4.6430 H         1 DEP1        0.0000
     21 C2         -0.2080    4.9080   -4.6780 C.3       1 DEP1        0.0000
     22 HS          0.1550    5.7590   -4.0530 H         1 DEP1        0.0000
     23 O21        -1.5690    4.5510   -4.3670 O.3       1 DEP1        0.0000
     24 C21        -2.3340    5.5480   -3.9690 C.2       1 DEP1        0.0000
     25 O22        -2.0000    6.7160   -3.8520 O.2       1 DEP1        0.0000
     26 C22        -3.7390    5.0100   -3.6980 C.3       1 DEP1        0.0000
     27 H2R        -3.6630    4.2530   -2.8900 H         1 DEP1        0.0000
     28 H2S        -4.0930    4.5100   -4.6230 H         1 DEP1        0.0000
     29 C3         -0.0780    5.2930   -6.1830 C.3       1 DEP1        0.0000
     30 HX         -0.3410    4.3820   -6.7660 H         1 DEP1        0.0000
     31 HY          0.9890    5.5240   -6.4120 H         1 DEP1        0.0000
     32 O31        -0.9830    6.3490   -6.5730 O.3       1 DEP1        0.0000
     33 C31        -0.5090    7.5850   -6.4290 C.2       1 DEP1        0.0000
     34 O32         0.6330    7.8760   -6.1270 O.2       1 DEP1        0.0000
     35 C32        -1.6320    8.5780   -6.7390 C.3       1 DEP1        0.0000
     36 H2X        -2.3570    8.5280   -5.9000 H         1 DEP1        0.0000
     37 H2Y        -2.1400    8.2440   -7.6670 H         1 DEP1        0.0000
     38 C23        -4.7270    6.1270   -3.2910 C.3       1 DEP1        0.0000
     39 H3R        -4.7340    6.9220   -4.0720 H         1 DEP1        0.0000
     40 H3S        -4.3920    6.5970   -2.3380 H         1 DEP1        0.0000
     41 C24        -6.1590    5.6090   -3.1160 C.3       1 DEP1        0.0000
     42 H4R        -6.1770    4.8210   -2.3300 H         1 DEP1        0.0000
     43 H4S        -6.4990    5.1430   -4.0690 H         1 DEP1        0.0000
     44 C25        -7.1390    6.7250   -2.7320 C.3       1 DEP1        0.0000
     45 H5R        -7.0830    7.5360   -3.4920 H         1 DEP1        0.0000
     46 H5S        -6.8340    7.1590   -1.7530 H         1 DEP1        0.0000
     47 C26        -8.5860    6.2260   -2.6400 C.3       1 DEP1        0.0000
     48 H6R        -8.6460    5.4120   -1.8830 H         1 DEP1        0.0000
     49 H6S        -8.8830    5.7980   -3.6230 H         1 DEP1        0.0000
     50 C27        -9.5740    7.3360   -2.2610 C.3       1 DEP1        0.0000
     51 H7R        -9.4880    8.1680   -2.9970 H         1 DEP1        0.0000
     52 H7S        -9.3050    7.7420   -1.2600 H         1 DEP1        0.0000
     53 C28       -11.0270    6.8440   -2.2330 C.3       1 DEP1        0.0000
     54 H8R       -11.1160    6.0040   -1.5090 H         1 DEP1        0.0000
     55 H8S       -11.2960    6.4520   -3.2400 H         1 DEP1        0.0000
     56 C29       -12.0110    7.9540   -1.8440 C.3       1 DEP1        0.0000
     57 H9R       -11.8900    8.8080   -2.5490 H         1 DEP1        0.0000
     58 H9S       -11.7600    8.3200   -0.8230 H         1 DEP1        0.0000
     59 C210      -13.4740    7.4920   -1.8690 C.3       1 DEP1        0.0000
     60 H10R      -13.5990    6.6310   -1.1750 H         1 DEP1        0.0000
     61 H10S      -13.7260    7.1390   -2.8940 H         1 DEP1        0.0000
     62 C211      -14.4510    8.6070   -1.4670 C.3       1 DEP1        0.0000
     63 H11R      -14.2920    9.4800   -2.1400 H         1 DEP1        0.0000
     64 H11S      -14.2120    8.9300   -0.4280 H         1 DEP1        0.0000
     65 C212      -15.9210    8.1540   -1.5420 C.3       1 DEP1        0.0000
     66 H12R      -16.0260    7.2460   -0.9070 H         1 DEP1        0.0000
     67 H12S      -16.1410    7.8460   -2.5880 H         1 DEP1        0.0000
     68 C213      -16.8650    9.2540   -1.1180 C.2       1 DEP1        0.0000
     69 H13R      -16.7170   10.2130   -1.6390 H         1 DEP1        0.0000
     70 C214      -17.8200    9.1730   -0.1720 C.2       1 DEP1        0.0000
     71 H14R      -18.4250   10.0660    0.0480 H         1 DEP1        0.0000
     72 C215      -18.1750    7.9510    0.6410 C.3       1 DEP1        0.0000
     73 H15R      -17.9320    7.0130    0.0930 H         1 DEP1        0.0000
     74 H15S      -19.2720    7.9270    0.8270 H         1 DEP1        0.0000
     75 C216      -17.4440    7.9200    1.9950 C.3       1 DEP1        0.0000
     76 H16R      -17.6990    8.8300    2.5820 H         1 DEP1        0.0000
     77 H16S      -16.3430    7.9250    1.8200 H         1 DEP1        0.0000
     78 C217      -17.8040    6.6780    2.8240 C.3       1 DEP1        0.0000
     79 H17R      -17.5510    5.7660    2.2390 H         1 DEP1        0.0000
     80 H17S      -18.9020    6.6690    3.0060 H         1 DEP1        0.0000
     81 C218      -17.0720    6.6290    4.1710 C.3       1 DEP1        0.0000
     82 H18R      -17.3260    7.5400    4.7590 H         1 DEP1        0.0000
     83 H18S      -15.9730    6.6390    3.9910 H         1 DEP1        0.0000
     84 C219      -17.4340    5.3840    4.9920 C.3       1 DEP1        0.0000
     85 H19R      -17.1770    4.4740    4.4060 H         1 DEP1        0.0000
     86 H19S      -18.5330    5.3730    5.1700 H         1 DEP1        0.0000
     87 C220      -16.7070    5.3330    6.3420 C.3       1 DEP1        0.0000
     88 H20R      -16.9620    6.2440    6.9290 H         1 DEP1        0.0000
     89 H20S      -15.6080    5.3430    6.1650 H         1 DEP1        0.0000
     90 C221      -17.0720    4.0900    7.1630 C.3       1 DEP1        0.0000
     91 H21R      -16.8170    3.1820    6.5700 H         1 DEP1        0.0000
     92 H21S      -18.1730    4.0810    7.3290 H         1 DEP1        0.0000
     93 C222      -16.3580    4.0260    8.5160 C.3       1 DEP1        0.0000
     94 H22R      -16.6170    4.9120    9.1340 H         1 DEP1        0.0000
     95 H22S      -15.2560    4.0080    8.3730 H         1 DEP1        0.0000
     96 H22T      -16.6550    3.1100    9.0710 H         1 DEP1        0.0000
     97 C33        -1.1290   10.0290   -6.9090 C.3       1 DEP1        0.0000
     98 H3X        -0.3750   10.0710   -7.7280 H         1 DEP1        0.0000
     99 H3Y        -0.6280   10.3670   -5.9730 H         1 DEP1        0.0000
    100 C34        -2.2770   10.9940   -7.2410 C.3       1 DEP1        0.0000
    101 H4X        -3.0070   10.9920   -6.4000 H         1 DEP1        0.0000
    102 H4Y        -2.8060   10.6260   -8.1480 H         1 DEP1        0.0000
    103 C35        -1.8010   12.4310   -7.4950 C.3       1 DEP1        0.0000
    104 H5X        -1.0670   12.4260   -8.3310 H         1 DEP1        0.0000
    105 H5Y        -1.2800   12.8130   -6.5880 H         1 DEP1        0.0000
    106 C36        -2.9580   13.3760   -7.8490 C.3       1 DEP1        0.0000
    107 H6X        -3.6710   13.4180   -6.9960 H         1 DEP1        0.0000
    108 H6Y        -3.5060   12.9620   -8.7260 H         1 DEP1        0.0000
    109 C37        -2.4910   14.7990   -8.1880 C.3       1 DEP1        0.0000
    110 H7X        -1.7730   14.7510   -9.0370 H         1 DEP1        0.0000
    111 H7Y        -1.9530   15.2290   -7.3130 H         1 DEP1        0.0000
    112 C38        -3.6570   15.7230   -8.5700 C.3       1 DEP1        0.0000
    113 H8X        -4.3520   15.8110   -7.7060 H         1 DEP1        0.0000
    114 H8Y        -4.2200   15.2600   -9.4120 H         1 DEP1        0.0000
    115 C39        -3.1970   17.1250   -8.9960 C.3       1 DEP1        0.0000
    116 H9X        -2.4940   17.0270   -9.8540 H         1 DEP1        0.0000
    117 H9Y        -2.6430   17.6020   -8.1570 H         1 DEP1        0.0000
    118 C310       -4.3660   18.0300   -9.4120 C.3       1 DEP1        0.0000
    119 H10X       -5.0450   18.1750   -8.5430 H         1 DEP1        0.0000
    120 H10Y       -4.9470   17.5220  -10.2140 H         1 DEP1        0.0000
    121 C311       -3.9040   19.4010   -9.9280 C.3       1 DEP1        0.0000
    122 H11X       -3.2080   19.2390  -10.7820 H         1 DEP1        0.0000
    123 H11Y       -3.3370   19.9180   -9.1200 H         1 DEP1        0.0000
    124 C312       -5.0800   20.2890  -10.3770 C.3       1 DEP1        0.0000
    125 H12X       -5.7530   20.4270   -9.5020 H         1 DEP1        0.0000
    126 H12Y       -5.6640   19.7360  -11.1460 H         1 DEP1        0.0000
    127 C313       -4.6040   21.6030  -10.9490 C.2       1 DEP1        0.0000
    128 H13X       -3.9340   21.5020  -11.8180 H         1 DEP1        0.0000
    129 C314       -4.8950   22.8420  -10.5070 C.2       1 DEP1        0.0000
    130 H14X       -4.4530   23.7030  -11.0320 H         1 DEP1        0.0000
    131 C315       -5.7820   23.2120   -9.3430 C.3       1 DEP1        0.0000
    132 H15X       -6.4100   22.3590   -9.0040 H         1 DEP1        0.0000
    133 H15Y       -6.4870   24.0170   -9.6480 H         1 DEP1        0.0000
    134 C316       -4.9620   23.7110   -8.1390 C.3       1 DEP1        0.0000
    135 H16X       -4.3470   24.5880   -8.4400 H         1 DEP1        0.0000
    136 H16Y       -4.2670   22.9060   -7.8050 H         1 DEP1        0.0000
    137 C317       -5.8490   24.1180   -6.9530 C.3       1 DEP1        0.0000
    138 H17X       -6.4550   23.2410   -6.6340 H         1 DEP1        0.0000
    139 H17Y       -6.5540   24.9150   -7.2820 H         1 DEP1        0.0000
    140 C318       -5.0380   24.6320   -5.7560 C.3       1 DEP1        0.0000
    141 H18X       -4.4320   25.5090   -6.0760 H         1 DEP1        0.0000
    142 H18Y       -4.3330   23.8370   -5.4240 H         1 DEP1        0.0000
    143 C319       -5.9260   25.0420   -4.5740 C.3       1 DEP1        0.0000
    144 H19X       -6.5270   24.1640   -4.2470 H         1 DEP1        0.0000
    145 H19Y       -6.6360   25.8320   -4.9080 H         1 DEP1        0.0000
    146 C320       -5.1150   25.5670   -3.3830 C.3       1 DEP1        0.0000
    147 H20X       -4.5140   26.4450   -3.7100 H         1 DEP1        0.0000
    148 H20Y       -4.4040   24.7780   -3.0480 H         1 DEP1        0.0000
    149 C321       -6.0000   25.9790   -2.2000 C.3       1 DEP1        0.0000
    150 H21X       -6.6010   25.0970   -1.8790 H         1 DEP1        0.0000
    151 H21Y       -6.7150   26.7610   -2.5430 H         1 DEP1        0.0000
    152 C322       -5.2060   26.5110   -1.0050 C.3       1 DEP1        0.0000
    153 H22X       -4.6180   27.4070   -1.2980 H         1 DEP1        0.0000
    154 H22Y       -4.5010   25.7370   -0.6310 H         1 DEP1        0.0000
    155 H22Z       -5.8890   26.7940   -0.1760 H         1 DEP1        0.0000
@<TRIPOS>BOND
     1  128  127 1 
     2  126  124 1 
     3  130  129 1 
     4  127  129 2 
     5  127  124 1 
     6  122  121 1 
     7  129  131 1 
     8  124  121 1 
     9  124  125 1 
    10  120  118 1 
    11  121  118 1 
    12  121  123 1 
    13  116  115 1 
    14  133  131 1 
    15  118  115 1 
    16  118  119 1 
    17  114  112 1 
    18  131  132 1 
    19  131  134 1 
    20  110  109 1 
    21  115  112 1 
    22  115  117 1 
    23  108  106 1 
    24  112  109 1 
    25  112  113 1 
    26  135  134 1 
    27  104  103 1 
    28  109  106 1 
    29  109  111 1 
    30  102  100 1 
    31  134  136 1 
    32  134  137 1 
    33  106  103 1 
    34  106  107 1 
    35   98   97 1 
    36   37   35 1 
    37  103  100 1 
    38  103  105 1 
    39  139  137 1 
    40  100   97 1 
    41  100  101 1 
    42  137  138 1 
    43  137  140 1 
    44   97   35 1 
    45   97   99 1 
    46   30   29 1 
    47   35   33 1 
    48   35   36 1 
    49   32   33 1 
    50   32   29 1 
    51   33   34 2 
    52   31   29 1 
    53   29   21 1 
    54  141  140 1 
    55  140  142 1 
    56  140  143 1 
    57   19   18 1 
    58  145  143 1 
    59   21   23 1 
    60   21   18 1 
    61   21   22 1 
    62   20   18 1 
    63   28   26 1 
    64  143  144 1 
    65  143  146 1 
    66   23   24 1 
    67   18   17 1 
    68   39   38 1 
    69   43   41 1 
    70   24   25 2 
    71   24   26 1 
    72  147  146 1 
    73   26   38 1 
    74   26   27 1 
    75   49   47 1 
    76   45   44 1 
    77  146  148 1 
    78  146  149 1 
    79   38   41 1 
    80   38   40 1 
    81   55   53 1 
    82   41   44 1 
    83   41   42 1 
    84   51   50 1 
    85   15   13 2 
    86   17   13 1 
    87   61   59 1 
    88   44   47 1 
    89   44   46 1 
    90   14   13 1 
    91   47   50 1 
    92   47   48 1 
    93   67   65 1 
    94   57   56 1 
    95  151  149 1 
    96   13   16 1 
    97   50   53 1 
    98   50   52 1 
    99   53   56 1 
   100   53   54 1 
   101  149  150 1 
   102  149  152 1 
   103   63   62 1 
   104   59   56 1 
   105   59   62 1 
   106   59   60 1 
   107    9    8 1 
   108   56   58 1 
   109   69   68 1 
   110   65   62 1 
   111   65   68 1 
   112   65   66 1 
   113   62   64 1 
   114  153  152 1 
   115   68   70 2 
   116    8    6 1 
   117  152  154 1 
   118  152  155 1 
   119   16   10 1 
   120    2    1 1 
   121   11   10 1 
   122   70   71 1 
   123   70   72 1 
   124   10    6 1 
   125   10   12 1 
   126    6    1 1 
   127    6    7 1 
   128   73   72 1 
   129    1    3 1 
   130    1    4 1 
   131   72   74 1 
   132   72   75 1 
   133    5    4 1 
   134   77   75 1 
   135   75   76 1 
   136   75   78 1 
   137   79   78 1 
   138   78   80 1 
   139   78   81 1 
   140   83   81 1 
   141   81   82 1 
   142   81   84 1 
   143   85   84 1 
   144   84   86 1 
   145   84   87 1 
   146   89   87 1 
   147   87   88 1 
   148   87   90 1 
   149   91   90 1 
   150   90   92 1 
   151   90   93 1 
   152   95   93 1 
   153   93   96 1 
   154   93   94 1 
