@<TRIPOS>MOLECULE
C:\Users\Praveer\PycharmProjects\pdb_to_mol2_converter\data\pdb\deps.pdb
  155   154     0     0     0
SMALL
GASTEIGER

@<TRIPOS>ATOM
      1 N           0.0160   -0.2290   -0.1800 N.4       1 DEP1        0.0000
      2 HN1        -0.4070    0.1240    0.7220 H         1 DEP1        0.0000
      3 HN2        -0.2020   -1.2170   -0.4110 H         1 DEP1        0.0000
      4 HN3        -0.2980    0.3810   -0.9580 H         1 DEP1        0.0000
      5 C12         1.5040   -0.0920   -0.1120 C.3       1 DEP1        0.0000
      6 H12A        1.8570   -0.6250    0.7590 H         1 DEP1        0.0000
      7 C13         2.1540   -0.7580   -1.3450 C.2       1 DEP1        0.0000
      8 O13A        1.4000   -1.3860   -2.1450 O.co2     1 DEP1        0.0000
      9 O13B        3.4050   -0.8430   -1.3610 O.co2     1 DEP1        0.0000
     10 C11         1.9150    1.4150    0.0070 C.3       1 DEP1        0.0000
     11 H11A        1.5450    1.9940   -0.8720 H         1 DEP1        0.0000
     12 H11B        3.0300    1.4480   -0.0410 H         1 DEP1        0.0000
     13 P           0.0260    2.4930    1.4900 P.3       1 DEP1        0.0000
     14 O13        -0.4510    3.1600    0.2630 O.2       1 DEP1        0.0000
     15 O14        -0.7350    1.2830    1.8820 O.3       1 DEP1        0.0000
     16 O12         1.5150    2.0150    1.2490 O.3       1 DEP1        0.0000
     17 O11         0.1050    3.5260    2.6840 O.3       1 DEP1        0.0000
     18 C1         -1.0770    4.2890    2.9580 C.3       1 DEP1        0.0000
     19 HA         -1.9850    3.6380    2.9970 H         1 DEP1        0.0000
     20 HB         -1.2250    5.0620    2.1670 H         1 DEP1        0.0000
     21 C2         -0.9690    5.0020    4.3290 C.3       1 DEP1        0.0000
     22 HS         -0.1010    5.7020    4.2600 H         1 DEP1        0.0000
     23 O21        -0.7810    3.9980    5.3450 O.3       1 DEP1        0.0000
     24 C21        -0.0380    4.3650    6.3680 C.2       1 DEP1        0.0000
     25 O22         0.4880    5.4550    6.5310 O.2       1 DEP1        0.0000
     26 C22         0.0410    3.2020    7.3560 C.3       1 DEP1        0.0000
     27 H2R         0.5130    2.3440    6.8360 H         1 DEP1        0.0000
     28 H2S        -0.9960    2.9230    7.6340 H         1 DEP1        0.0000
     29 C3         -2.2610    5.8180    4.6200 C.3       1 DEP1        0.0000
     30 HX         -3.1080    5.0960    4.6010 H         1 DEP1        0.0000
     31 HY         -2.4400    6.5420    3.7900 H         1 DEP1        0.0000
     32 O31        -2.2380    6.4470    5.9180 O.3       1 DEP1        0.0000
     33 C31        -1.6400    7.6350    5.9520 C.2       1 DEP1        0.0000
     34 O32        -1.2540    8.2620    4.9840 O.2       1 DEP1        0.0000
     35 C32        -1.5430    8.0850    7.4090 C.3       1 DEP1        0.0000
     36 H2X        -0.7750    7.4500    7.8990 H         1 DEP1        0.0000
     37 H2Y        -2.5220    7.8980    7.8950 H         1 DEP1        0.0000
     38 C23         0.8450    3.5710    8.6210 C.3       1 DEP1        0.0000
     39 H3R         0.4140    4.4910    9.0810 H         1 DEP1        0.0000
     40 H3S         1.8990    3.7990    8.3430 H         1 DEP1        0.0000
     41 C24         0.8290    2.4520    9.6700 C.3       1 DEP1        0.0000
     42 H4R         1.2620    1.5270    9.2280 H         1 DEP1        0.0000
     43 H4S        -0.2260    2.2330    9.9490 H         1 DEP1        0.0000
     44 C25         1.6130    2.8260   10.9350 C.3       1 DEP1        0.0000
     45 H5R         1.2100    3.7810   11.3410 H         1 DEP1        0.0000
     46 H5S         2.6800    2.9970   10.6660 H         1 DEP1        0.0000
     47 C26         1.5320    1.7510   12.0270 C.3       1 DEP1        0.0000
     48 H6R         1.9340    0.7910   11.6300 H         1 DEP1        0.0000
     49 H6S         0.4640    1.5860   12.2950 H         1 DEP1        0.0000
     50 C27         2.3110    2.1410   13.2900 C.3       1 DEP1        0.0000
     51 H7R         1.9320    3.1200   13.6620 H         1 DEP1        0.0000
     52 H7S         3.3860    2.2720   13.0300 H         1 DEP1        0.0000
     53 C28         2.1860    1.1010   14.4110 C.3       1 DEP1        0.0000
     54 H8R         2.5510    0.1170   14.0410 H         1 DEP1        0.0000
     55 H8S         1.1120    0.9850   14.6800 H         1 DEP1        0.0000
     56 C29         2.9780    1.4920   15.6660 C.3       1 DEP1        0.0000
     57 H9R         2.6360    2.4920   16.0150 H         1 DEP1        0.0000
     58 H9S         4.0570    1.5760   15.4050 H         1 DEP1        0.0000
     59 C210        2.8150    0.4820   16.8100 C.3       1 DEP1        0.0000
     60 H10R        3.1430   -0.5230   16.4610 H         1 DEP1        0.0000
     61 H10S        1.7370    0.4100   17.0790 H         1 DEP1        0.0000
     62 C211        3.6210    0.8680   18.0580 C.3       1 DEP1        0.0000
     63 H11R        3.3160    1.8900   18.3780 H         1 DEP1        0.0000
     64 H11S        4.7010    0.9040   17.7860 H         1 DEP1        0.0000
     65 C212        3.4140   -0.1220   19.2200 C.3       1 DEP1        0.0000
     66 H12R        3.6730   -1.1380   18.8470 H         1 DEP1        0.0000
     67 H12S        2.3320   -0.1380   19.4790 H         1 DEP1        0.0000
     68 C213        4.2280    0.2640   20.4310 C.2       1 DEP1        0.0000
     69 H13R        4.0980    1.3070   20.7590 H         1 DEP1        0.0000
     70 C214        5.0950   -0.5210   21.0990 C.2       1 DEP1        0.0000
     71 H14R        5.6370   -0.0990   21.9600 H         1 DEP1        0.0000
     72 C215        5.4040   -1.9670   20.8020 C.3       1 DEP1        0.0000
     73 H15R        4.5440   -2.4760   20.3120 H         1 DEP1        0.0000
     74 H15S        5.5910   -2.5170   21.7510 H         1 DEP1        0.0000
     75 C216        6.6360   -2.1240   19.8920 C.3       1 DEP1        0.0000
     76 H16R        7.5240   -1.6590   20.3770 H         1 DEP1        0.0000
     77 H16S        6.4560   -1.5910   18.9310 H         1 DEP1        0.0000
     78 C217        6.9510   -3.5960   19.5880 C.3       1 DEP1        0.0000
     79 H17R        6.0650   -4.0630   19.1030 H         1 DEP1        0.0000
     80 H17S        7.1370   -4.1340   20.5440 H         1 DEP1        0.0000
     81 C218        8.1700   -3.7640   18.6710 C.3       1 DEP1        0.0000
     82 H18R        9.0570   -3.2990   19.1550 H         1 DEP1        0.0000
     83 H18S        7.9840   -3.2240   17.7150 H         1 DEP1        0.0000
     84 C219        8.4780   -5.2370   18.3660 C.3       1 DEP1        0.0000
     85 H19R        7.5910   -5.7000   17.8790 H         1 DEP1        0.0000
     86 H19S        8.6590   -5.7760   19.3230 H         1 DEP1        0.0000
     87 C220        9.7000   -5.4110   17.4540 C.3       1 DEP1        0.0000
     88 H20R       10.5870   -4.9450   17.9400 H         1 DEP1        0.0000
     89 H20S        9.5200   -4.8750   16.4950 H         1 DEP1        0.0000
     90 C221       10.0090   -6.8830   17.1550 C.3       1 DEP1        0.0000
     91 H21R        9.1180   -7.3460   16.6720 H         1 DEP1        0.0000
     92 H21S       10.1800   -7.4160   18.1180 H         1 DEP1        0.0000
     93 C222       11.2290   -7.0760   16.2500 C.3       1 DEP1        0.0000
     94 H22R       12.1360   -6.6430   16.7230 H         1 DEP1        0.0000
     95 H22S       11.0700   -6.5730   15.2720 H         1 DEP1        0.0000
     96 H22T       11.4110   -8.1570   16.0650 H         1 DEP1        0.0000
     97 C33        -1.1600    9.5740    7.5480 C.3       1 DEP1        0.0000
     98 H3X        -1.9160   10.2040    7.0270 H         1 DEP1        0.0000
     99 H3Y        -0.1750    9.7580    7.0620 H         1 DEP1        0.0000
    100 C34        -1.0840   10.0020    9.0190 C.3       1 DEP1        0.0000
    101 H4X        -0.2900    9.4120    9.5300 H         1 DEP1        0.0000
    102 H4Y        -2.0520    9.7650    9.5150 H         1 DEP1        0.0000
    103 C35        -0.7930   11.4980    9.1940 C.3       1 DEP1        0.0000
    104 H5X        -1.5850   12.0830    8.6750 H         1 DEP1        0.0000
    105 H5Y         0.1800   11.7450    8.7140 H         1 DEP1        0.0000
    106 C36        -0.7520   11.9100   10.6710 C.3       1 DEP1        0.0000
    107 H6X         0.0690   11.3590   11.1830 H         1 DEP1        0.0000
    108 H6Y        -1.7100   11.6140   11.1550 H         1 DEP1        0.0000
    109 C37        -0.5480   13.4180   10.8650 C.3       1 DEP1        0.0000
    110 H7X        -1.3690   13.9620   10.3450 H         1 DEP1        0.0000
    111 H7Y         0.4130   13.7250   10.3940 H         1 DEP1        0.0000
    112 C38        -0.5410   13.8200   12.3450 C.3       1 DEP1        0.0000
    113 H8X         0.3050   13.3120   12.8600 H         1 DEP1        0.0000
    114 H8Y        -1.4860   13.4670   12.8180 H         1 DEP1        0.0000
    115 C39        -0.4240   15.3360   12.5500 C.3       1 DEP1        0.0000
    116 H9X        -1.2700   15.8360   12.0260 H         1 DEP1        0.0000
    117 H9Y         0.5220   15.7000   12.0910 H         1 DEP1        0.0000
    118 C310       -0.4530   15.7300   14.0330 C.3       1 DEP1        0.0000
    119 H10X        0.4200   15.2750   14.5520 H         1 DEP1        0.0000
    120 H10Y       -1.3770   15.3170   14.4980 H         1 DEP1        0.0000
    121 C311       -0.4310   17.2510   14.2420 C.3       1 DEP1        0.0000
    122 H11X       -1.2990   17.6930   13.7010 H         1 DEP1        0.0000
    123 H11Y        0.4990   17.6650   13.7890 H         1 DEP1        0.0000
    124 C312       -0.4960   17.6370   15.7310 C.3       1 DEP1        0.0000
    125 H12X        0.3830   17.1800   16.2380 H         1 DEP1        0.0000
    126 H12Y       -1.4020   17.1680   16.1760 H         1 DEP1        0.0000
    127 C313       -0.5550   19.1340   15.9150 C.2       1 DEP1        0.0000
    128 H13X       -1.4110   19.6170   15.4200 H         1 DEP1        0.0000
    129 C314        0.3180   19.9100   16.5870 C.2       1 DEP1        0.0000
    130 H14X        0.1390   20.9960   16.6170 H         1 DEP1        0.0000
    131 C315        1.5530   19.4620   17.3300 C.3       1 DEP1        0.0000
    132 H15X        1.5650   18.3640   17.5040 H         1 DEP1        0.0000
    133 H15Y        1.5810   19.9390   18.3350 H         1 DEP1        0.0000
    134 C316        2.8390   19.8400   16.5730 C.3       1 DEP1        0.0000
    135 H16X        2.8730   20.9420   16.4140 H         1 DEP1        0.0000
    136 H16Y        2.8380   19.3520   15.5720 H         1 DEP1        0.0000
    137 C317        4.1070   19.4150   17.3270 C.3       1 DEP1        0.0000
    138 H17X        4.0900   18.3110   17.4750 H         1 DEP1        0.0000
    139 H17Y        4.1100   19.8910   18.3330 H         1 DEP1        0.0000
    140 C318        5.3930   19.8030   16.5860 C.3       1 DEP1        0.0000
    141 H18X        5.4090   20.9060   16.4380 H         1 DEP1        0.0000
    142 H18Y        5.3920   19.3270   15.5800 H         1 DEP1        0.0000
    143 C319        6.6610   19.3800   17.3410 C.3       1 DEP1        0.0000
    144 H19X        6.6490   18.2760   17.4820 H         1 DEP1        0.0000
    145 H19Y        6.6560   19.8500   18.3500 H         1 DEP1        0.0000
    146 C320        7.9480   19.7800   16.6080 C.3       1 DEP1        0.0000
    147 H20X        7.9590   20.8840   16.4670 H         1 DEP1        0.0000
    148 H20Y        7.9540   19.3110   15.5980 H         1 DEP1        0.0000
    149 C321        9.2150   19.3600   17.3640 C.3       1 DEP1        0.0000
    150 H21X        9.1990   18.2550   17.5040 H         1 DEP1        0.0000
    151 H21Y        9.1990   19.8240   18.3760 H         1 DEP1        0.0000
    152 C322       10.5090   19.7580   16.6490 C.3       1 DEP1        0.0000
    153 H22X       10.5580   20.8610   16.5210 H         1 DEP1        0.0000
    154 H22Y       10.5580   19.2870   15.6440 H         1 DEP1        0.0000
    155 H22Z       11.3950   19.4320   17.2340 H         1 DEP1        0.0000
@<TRIPOS>BOND
     1    8    7 ar
     2    9    7 ar
     3    7    5 1 
     4    4    1 1 
     5   11   10 1 
     6    3    1 1 
     7    1    5 1 
     8    1    2 1 
     9    5   10 1 
    10    5    6 1 
    11   12   10 1 
    12   10   16 1 
    13   14   13 2 
    14   16   13 1 
    15   13   15 1 
    16   13   17 1 
    17   20   18 1 
    18   17   18 1 
    19   18   19 1 
    20   18   21 1 
    21   31   29 1 
    22   22   21 1 
    23   21   29 1 
    24   21   23 1 
    25   30   29 1 
    26   29   32 1 
    27   34   33 2 
    28   23   24 1 
    29   32   33 1 
    30   33   35 1 
    31   24   25 2 
    32   24   26 1 
    33   27   26 1 
    34   98   97 1 
    35   99   97 1 
    36   26   28 1 
    37   26   38 1 
    38   35   97 1 
    39   35   37 1 
    40   35   36 1 
    41   97  100 1 
    42   40   38 1 
    43   38   39 1 
    44   38   41 1 
    45  104  103 1 
    46  105  103 1 
    47  100  103 1 
    48  100  102 1 
    49  100  101 1 
    50  103  106 1 
    51   42   41 1 
    52   41   43 1 
    53   41   44 1 
    54  110  109 1 
    55  111  109 1 
    56   46   44 1 
    57  106  109 1 
    58  106  108 1 
    59  106  107 1 
    60  109  112 1 
    61   44   45 1 
    62   44   47 1 
    63   48   47 1 
    64  116  115 1 
    65   47   49 1 
    66   47   50 1 
    67  117  115 1 
    68  112  115 1 
    69  112  114 1 
    70  112  113 1 
    71  115  118 1 
    72   52   50 1 
    73   50   51 1 
    74   50   53 1 
    75  122  121 1 
    76  123  121 1 
    77  118  121 1 
    78  118  120 1 
    79  118  119 1 
    80   54   53 1 
    81  121  124 1 
    82   53   55 1 
    83   53   56 1 
    84   95   93 1 
    85   58   56 1 
    86  128  127 1 
    87  136  134 1 
    88  142  140 1 
    89  148  146 1 
    90  154  152 1 
    91   56   57 1 
    92   56   59 1 
    93  124  127 1 
    94  124  126 1 
    95  124  125 1 
    96  127  129 2 
    97   96   93 1 
    98   93   94 1 
    99   93   90 1 
   100  135  134 1 
   101  141  140 1 
   102   60   59 1 
   103  147  146 1 
   104   89   87 1 
   105  153  152 1 
   106  134  137 1 
   107  134  131 1 
   108  140  137 1 
   109  140  143 1 
   110  129  130 1 
   111  129  131 1 
   112  146  143 1 
   113  146  149 1 
   114  152  155 1 
   115  152  149 1 
   116   91   90 1 
   117   59   61 1 
   118   59   62 1 
   119   90   87 1 
   120   90   92 1 
   121  137  138 1 
   122  137  139 1 
   123  131  132 1 
   124  131  133 1 
   125  143  144 1 
   126  143  145 1 
   127  149  150 1 
   128  149  151 1 
   129   87   88 1 
   130   87   84 1 
   131   83   81 1 
   132   64   62 1 
   133   85   84 1 
   134   62   63 1 
   135   62   65 1 
   136   84   81 1 
   137   84   86 1 
   138   81   82 1 
   139   81   78 1 
   140   66   65 1 
   141   77   75 1 
   142   79   78 1 
   143   65   67 1 
   144   65   68 1 
   145   78   75 1 
   146   78   80 1 
   147   75   76 1 
   148   75   72 1 
   149   73   72 1 
   150   68   69 1 
   151   68   70 2 
   152   72   70 1 
   153   72   74 1 
   154   70   71 1 
