@<TRIPOS>MOLECULE
C:\Users\Praveer\PycharmProjects\pdb_to_mol2_converter\data\pdb\dete.pdb
   15    14     0     0     0
SMALL
GASTEIGER

@<TRIPOS>ATOM
      1 C1          0.0170    0.0400   -0.0000 C.3       1 DET1        0.0000
      2 H11        -0.4370   -0.9730   -0.0000 H         1 DET1        0.0000
      3 H12        -0.3350    0.5890   -0.9000 H         1 DET1        0.0000
      4 H13        -0.3350    0.5890    0.9000 H         1 DET1        0.0000
      5 C2          1.5420   -0.0480    0.0000 C.3       1 DET1        0.0000
      6 H21         1.8910   -0.5930   -0.9050 H         1 DET1        0.0000
      7 H22         1.8900   -0.5940    0.9060 H         1 DET1        0.0000
      8 O3          2.0810    1.2630    0.0010 O.3       1 DET1        0.0000
      9 C4          3.4990    1.2410    0.0010 C.3       1 DET1        0.0000
     10 H41         3.8620    0.7060   -0.9050 H         1 DET1        0.0000
     11 H42         3.8620    0.7050    0.9060 H         1 DET1        0.0000
     12 C5          4.0190    2.6770    0.0020 C.3       1 DET1        0.0000
     13 H51         3.6530    3.2160    0.9020 H         1 DET1        0.0000
     14 H52         3.6540    3.2170   -0.8980 H         1 DET1        0.0000
     15 H53         5.1290    2.6940    0.0020 H         1 DET1        0.0000
@<TRIPOS>BOND
     1    6    5 1 
     2   10    9 1 
     3    3    1 1 
     4   14   12 1 
     5    1    2 1 
     6    1    5 1 
     7    1    4 1 
     8    5    8 1 
     9    5    7 1 
    10    8    9 1 
    11    9   12 1 
    12    9   11 1 
    13   12   15 1 
    14   12   13 1 
