@<TRIPOS>MOLECULE
C:\Users\Praveer\PycharmProjects\pdb_to_mol2_converter\data\pdb\dfb.pdb
   12    12     0     0     0
SMALL
GASTEIGER

@<TRIPOS>ATOM
      1 C1         -0.0120   -0.0130    0.0000 C.ar      1 DFB1        0.0000
      2 H1         -0.5390   -0.9560    0.0000 H         1 DFB1        0.0000
      3 C2          1.3800   -0.0170   -0.0000 C.ar      1 DFB1        0.0000
      4 F2          2.0330   -1.2060   -0.0000 F         1 DFB1        0.0000
      5 C3          2.1220    1.1550   -0.0000 C.ar      1 DFB1        0.0000
      6 H3          3.1980    1.1360   -0.0000 H         1 DFB1        0.0000
      7 C4          1.4220    2.3530   -0.0000 C.ar      1 DFB1        0.0000
      8 F4          2.1160    3.5180   -0.0000 F         1 DFB1        0.0000
      9 C5          0.0300    2.3980   -0.0000 C.ar      1 DFB1        0.0000
     10 H5         -0.4630    3.3590   -0.0000 H         1 DFB1        0.0000
     11 C6         -0.7090    1.2050    0.0000 C.ar      1 DFB1        0.0000
     12 H6         -1.7940    1.2240    0.0000 H         1 DFB1        0.0000
@<TRIPOS>BOND
     1    1    2 1 
     2    1    3 ar
     3    1   11 ar
     4    3    4 1 
     5    3    5 ar
     6    5    6 1 
     7    5    7 ar
     8    7    8 1 
     9    7    9 ar
    10    9   10 1 
    11    9   11 ar
    12   11   12 1 
