@<TRIPOS>MOLECULE
C:\Users\Praveer\PycharmProjects\pdb_to_mol2_converter\data\pdb\dfet.pdb
    8     7     0     0     0
SMALL
GASTEIGER

@<TRIPOS>ATOM
      1 H13         1.1420   -1.4290    0.0000 H         1 DFE1        0.0000
      2 C1          1.3180   -0.3600    0.0000 C.3       1 DFE1        0.0000
      3 C2          0.0000    0.3610    0.0000 C.3       1 DFE1        0.0000
      4 H21         0.0910    1.4360    0.0000 H         1 DFE1        0.0000
      5 F22        -0.7180    0.0100    1.0830 F         1 DFE1        0.0000
      6 F23        -0.7180    0.0100   -1.0830 F         1 DFE1        0.0000
      7 H11         1.8870   -0.0940    0.8830 H         1 DFE1        0.0000
      8 H12         1.8870   -0.0940   -0.8830 H         1 DFE1        0.0000
@<TRIPOS>BOND
     1    6    3 1 
     2    8    2 1 
     3    1    2 1 
     4    2    3 1 
     5    2    7 1 
     6    3    4 1 
     7    3    5 1 
