@<TRIPOS>MOLECULE
C:\Users\Praveer\PycharmProjects\pdb_to_mol2_converter\data\pdb\dft.pdb
   15    15     0     0     0
SMALL
GASTEIGER

@<TRIPOS>ATOM
      1 C1         -0.0040   -0.0190    0.0010 C.ar      1 DFT1        0.0000
      2 C2          1.3870   -0.0300    0.0020 C.ar      1 DFT1        0.0000
      3 C3          2.1340    1.1400    0.0010 C.ar      1 DFT1        0.0000
      4 C4          1.4410    2.3470   -0.0020 C.ar      1 DFT1        0.0000
      5 C5          0.0380    2.4060   -0.0030 C.ar      1 DFT1        0.0000
      6 C6         -0.6910    1.2060   -0.0020 C.ar      1 DFT1        0.0000
      7 H1         -0.5400   -0.9570    0.0020 H         1 DFT1        0.0000
      8 F2          2.0350   -1.2200    0.0050 F         1 DFT1        0.0000
      9 H3          3.2100    1.1140    0.0020 H         1 DFT1        0.0000
     10 F4          2.1720    3.4930   -0.0030 F         1 DFT1        0.0000
     11 C5M        -0.6860    3.7210   -0.0070 C.3       1 DFT1        0.0000
     12 H51        -0.3920    4.2870   -0.9160 H         1 DFT1        0.0000
     13 H52        -0.3930    4.2910    0.9000 H         1 DFT1        0.0000
     14 H53        -1.7860    3.5610   -0.0070 H         1 DFT1        0.0000
     15 H6         -1.7720    1.2370   -0.0030 H         1 DFT1        0.0000
@<TRIPOS>BOND
     1   12   11 1 
     2   11   14 1 
     3   11    5 1 
     4   11   13 1 
     5    5    4 ar
     6    5    6 ar
     7   10    4 1 
     8   15    6 1 
     9    4    3 ar
    10    6    1 ar
    11    1    2 ar
    12    1    7 1 
    13    3    2 ar
    14    3    9 1 
    15    2    8 1 
