@<TRIPOS>MOLECULE
C:\Users\Praveer\PycharmProjects\pdb_to_mol2_converter\data\pdb\dglap.pdb
   56    55     0     0     0
SMALL
GASTEIGER

@<TRIPOS>ATOM
      1 H1         -0.0210    0.0250    0.0120 H         1 DGL1        0.0000
      2 O1          0.9350    0.0140    0.0150 O.3       1 DGL1        0.0000
      3 O2          0.5530    2.2290    0.0160 O.2       1 DGL1        0.0000
      4 C1          1.3630    1.3200    0.0170 C.2       1 DGL1        0.0000
      5 C2          2.8820    1.4410    0.0210 C.3       1 DGL1        0.0000
      6 H2R         3.2790    0.9050   -0.8680 H         1 DGL1        0.0000
      7 H2S         3.2710    0.9450    0.9350 H         1 DGL1        0.0000
      8 C3          3.3390    2.9150   -0.0100 C.3       1 DGL1        0.0000
      9 H3R         2.9260    3.4550    0.8730 H         1 DGL1        0.0000
     10 H3S         2.9400    3.4110   -0.9240 H         1 DGL1        0.0000
     11 C4          4.8670    3.0530   -0.0010 C.3       1 DGL1        0.0000
     12 H4R         5.2880    2.5090   -0.8760 H         1 DGL1        0.0000
     13 H4S         5.2740    2.5800    0.9210 H         1 DGL1        0.0000
     14 C5          5.3240    4.5170   -0.0570 C.3       1 DGL1        0.0000
     15 H5R         4.9040    5.0700    0.8130 H         1 DGL1        0.0000
     16 H5S         4.9200    4.9870   -0.9820 H         1 DGL1        0.0000
     17 C6          6.8530    4.6580   -0.0520 C.3       1 DGL1        0.0000
     18 H6R         7.2640    4.0500   -0.8910 H         1 DGL1        0.0000
     19 H6S         7.2490    4.2370    0.9000 H         1 DGL1        0.0000
     20 C7          7.3110    6.1200   -0.2040 C.3       1 DGL1        0.0000
     21 H7R         6.8660    6.7090    0.6280 H         1 DGL1        0.0000
     22 H7S         6.8870    6.5230   -1.1510 H         1 DGL1        0.0000
     23 C8          8.8170    6.2210   -0.2380 C.2       1 DGL1        0.0000
     24 H8R         9.3050    5.4720   -0.8800 H         1 DGL1        0.0000
     25 C9          9.5950    7.0970    0.4270 C.2       1 DGL1        0.0000
     26 H9R        10.6860    7.0240    0.2940 H         1 DGL1        0.0000
     27 C10         9.1490    8.2100    1.3470 C.3       1 DGL1        0.0000
     28 H10R        9.5220    8.0030    2.3740 H         1 DGL1        0.0000
     29 H10S        8.0440    8.2450    1.4440 H         1 DGL1        0.0000
     30 C11         9.7040    9.5370    0.8830 C.2       1 DGL1        0.0000
     31 H11R       10.8020    9.6110    0.9300 H         1 DGL1        0.0000
     32 C12         9.0140   10.6100    0.4450 C.2       1 DGL1        0.0000
     33 H12R        9.5840   11.4990    0.1330 H         1 DGL1        0.0000
     34 C13         7.5150   10.7500    0.2990 C.3       1 DGL1        0.0000
     35 H13R        6.9940    9.7950    0.5240 H         1 DGL1        0.0000
     36 H13S        7.2840   10.9670   -0.7670 H         1 DGL1        0.0000
     37 C14         6.9770   11.8730    1.1550 C.2       1 DGL1        0.0000
     38 H14R        7.6790   12.6990    1.3490 H         1 DGL1        0.0000
     39 C15         5.7520   11.9390    1.7110 C.2       1 DGL1        0.0000
     40 H15R        5.4990   12.8200    2.3210 H         1 DGL1        0.0000
     41 C16         4.6350   10.9350    1.5690 C.3       1 DGL1        0.0000
     42 H16R        4.5190   10.3650    2.5180 H         1 DGL1        0.0000
     43 H16S        4.8380   10.1920    0.7650 H         1 DGL1        0.0000
     44 C17         3.2960   11.6280    1.2550 C.3       1 DGL1        0.0000
     45 H17R        3.3740   12.1730    0.2870 H         1 DGL1        0.0000
     46 H17S        3.0670   12.3750    2.0490 H         1 DGL1        0.0000
     47 C18         2.1250   10.6380    1.1740 C.3       1 DGL1        0.0000
     48 H18R        2.0690   10.0640    2.1260 H         1 DGL1        0.0000
     49 H18S        2.3140    9.9130    0.3510 H         1 DGL1        0.0000
     50 C19         0.7790   11.3350    0.9360 C.3       1 DGL1        0.0000
     51 H19R        0.8350   11.9080   -0.0180 H         1 DGL1        0.0000
     52 H19S        0.6070   12.0690    1.7560 H         1 DGL1        0.0000
     53 C20        -0.4040   10.3650    0.8750 C.3       1 DGL1        0.0000
     54 H20R       -0.4870    9.7940    1.8250 H         1 DGL1        0.0000
     55 H20S       -0.2700    9.6410    0.0420 H         1 DGL1        0.0000
     56 H20T       -1.3540   10.9170    0.7120 H         1 DGL1        0.0000
@<TRIPOS>BOND
     1   22   20 1 
     2   16   14 1 
     3   10    8 1 
     4   18   17 1 
     5   24   23 1 
     6   12   11 1 
     7    6    5 1 
     8   36   34 1 
     9   23   20 1 
    10   23   25 2 
    11   20   17 1 
    12   20   21 1 
    13   14   17 1 
    14   14   11 1 
    15   14   15 1 
    16   17   19 1 
    17   51   50 1 
    18    8   11 1 
    19    8    5 1 
    20    8    9 1 
    21   11   13 1 
    22    1    2 1 
    23    2    4 1 
    24    3    4 2 
    25    4    5 1 
    26    5    7 1 
    27   55   53 1 
    28   33   32 1 
    29   45   44 1 
    30   26   25 1 
    31   34   32 1 
    32   34   35 1 
    33   34   37 1 
    34   49   47 1 
    35   25   27 1 
    36   32   30 2 
    37   56   53 1 
    38   43   41 1 
    39   53   50 1 
    40   53   54 1 
    41   30   31 1 
    42   30   27 1 
    43   50   47 1 
    44   50   52 1 
    45   37   38 1 
    46   37   39 2 
    47   47   44 1 
    48   47   48 1 
    49   44   41 1 
    50   44   46 1 
    51   27   29 1 
    52   27   28 1 
    53   41   39 1 
    54   41   42 1 
    55   39   40 1 
