@<TRIPOS>MOLECULE
C:\Users\Praveer\PycharmProjects\pdb_to_mol2_converter\data\pdb\dgla.pdb
   55    54     0     0     0
SMALL
GASTEIGER

@<TRIPOS>ATOM
      1 O1          0.0290   -0.0610   -0.0550 O.co2     1 DGL1        0.0000
      2 O2          2.0140   -1.0630   -0.0800 O.co2     1 DGL1        0.0000
      3 C1          1.2880   -0.0370   -0.0490 C.2       1 DGL1        0.0000
      4 C2          1.9470    1.3420    0.0010 C.3       1 DGL1        0.0000
      5 H2R         1.5780    1.8480    0.9160 H         1 DGL1        0.0000
      6 H2S         1.5940    1.9050   -0.8860 H         1 DGL1        0.0000
      7 C3          3.4910    1.2830    0.0120 C.3       1 DGL1        0.0000
      8 H3R         3.8390    0.7330   -0.8910 H         1 DGL1        0.0000
      9 H3S         3.8220    0.7000    0.9020 H         1 DGL1        0.0000
     10 C4          4.1310    2.6760    0.0430 C.3       1 DGL1        0.0000
     11 H4R         3.7510    3.2210    0.9360 H         1 DGL1        0.0000
     12 H4S         3.8080    3.2380   -0.8620 H         1 DGL1        0.0000
     13 C5          5.6640    2.6250    0.0930 C.3       1 DGL1        0.0000
     14 H5R         6.0380    2.0750   -0.7990 H         1 DGL1        0.0000
     15 H5S         5.9700    2.0510    0.9970 H         1 DGL1        0.0000
     16 C6          6.3020    4.0200    0.1400 C.3       1 DGL1        0.0000
     17 H6R         5.8720    4.5670    1.0100 H         1 DGL1        0.0000
     18 H6S         6.0210    4.5730   -0.7840 H         1 DGL1        0.0000
     19 C7          7.8350    3.9640    0.2700 C.3       1 DGL1        0.0000
     20 H7R         8.2320    3.4050   -0.6070 H         1 DGL1        0.0000
     21 H7S         8.0840    3.3670    1.1750 H         1 DGL1        0.0000
     22 C8          8.4300    5.3460    0.3910 C.2       1 DGL1        0.0000
     23 H8R         7.8860    6.0120    1.0780 H         1 DGL1        0.0000
     24 C9          9.5140    5.8310   -0.2460 C.2       1 DGL1        0.0000
     25 H9R         9.8070    6.8740   -0.0460 H         1 DGL1        0.0000
     26 C10        10.4130    5.1020   -1.2180 C.3       1 DGL1        0.0000
     27 H10R       10.3260    5.5820   -2.2170 H         1 DGL1        0.0000
     28 H10S       10.0840    4.0530   -1.3720 H         1 DGL1        0.0000
     29 C11        11.8550    5.1660   -0.7710 C.2       1 DGL1        0.0000
     30 H11R       12.2670    6.1860   -0.7050 H         1 DGL1        0.0000
     31 C12        12.6690    4.1330   -0.4720 C.2       1 DGL1        0.0000
     32 H12R       13.6990    4.3610   -0.1550 H         1 DGL1        0.0000
     33 C13        12.3350    2.6590   -0.4940 C.3       1 DGL1        0.0000
     34 H13R       11.2410    2.4970   -0.5940 H         1 DGL1        0.0000
     35 H13S       12.6080    2.2210    0.4910 H         1 DGL1        0.0000
     36 C14        13.0920    1.9300   -1.5800 C.2       1 DGL1        0.0000
     37 H14R       14.0780    2.3530   -1.8340 H         1 DGL1        0.0000
     38 C15        12.6750    0.8460   -2.2620 C.2       1 DGL1        0.0000
     39 H15R       13.3380    0.4240   -3.0330 H         1 DGL1        0.0000
     40 C16        11.3770    0.0970   -2.0790 C.3       1 DGL1        0.0000
     41 H16R       10.7470    0.2130   -2.9880 H         1 DGL1        0.0000
     42 H16S       10.7820    0.4830   -1.2210 H         1 DGL1        0.0000
     43 C17        11.6230   -1.4060   -1.8480 C.3       1 DGL1        0.0000
     44 H17R       12.1910   -1.5490   -0.9010 H         1 DGL1        0.0000
     45 H17S       12.2370   -1.8200   -2.6800 H         1 DGL1        0.0000
     46 C18        10.3160   -2.2090   -1.7710 C.3       1 DGL1        0.0000
     47 H18R        9.7400   -2.0540   -2.7110 H         1 DGL1        0.0000
     48 H18S        9.6970   -1.8260   -0.9290 H         1 DGL1        0.0000
     49 C19        10.5570   -3.7120   -1.5780 C.3       1 DGL1        0.0000
     50 H19R       11.1090   -3.8670   -0.6230 H         1 DGL1        0.0000
     51 H19S       11.2070   -4.0800   -2.4040 H         1 DGL1        0.0000
     52 C20         9.2660   -4.5350   -1.5530 C.3       1 DGL1        0.0000
     53 H20R        8.7120   -4.4160   -2.5090 H         1 DGL1        0.0000
     54 H20S        8.6060   -4.1980   -0.7240 H         1 DGL1        0.0000
     55 H20T        9.4900   -5.6130   -1.4080 H         1 DGL1        0.0000
@<TRIPOS>BOND
     1   39   38 1 
     2   41   40 1 
     3   47   46 1 
     4   45   43 1 
     5   53   52 1 
     6   51   49 1 
     7   38   40 1 
     8   38   36 2 
     9   27   26 1 
    10   40   43 1 
    11   40   42 1 
    12   43   46 1 
    13   43   44 1 
    14   37   36 1 
    15   46   49 1 
    16   46   48 1 
    17   36   33 1 
    18   49   52 1 
    19   49   50 1 
    20   52   55 1 
    21   52   54 1 
    22   28   26 1 
    23   26   29 1 
    24   26   24 1 
    25    8    7 1 
    26    6    4 1 
    27   12   10 1 
    28   14   13 1 
    29   18   16 1 
    30   29   30 1 
    31   29   31 2 
    32   20   19 1 
    33   34   33 1 
    34   33   31 1 
    35   33   35 1 
    36   31   32 1 
    37   24   25 1 
    38   24   22 2 
    39    2    3 ar
    40    1    3 ar
    41    3    4 1 
    42    4    7 1 
    43    4    5 1 
    44    7   10 1 
    45    7    9 1 
    46   10   13 1 
    47   10   11 1 
    48   13   16 1 
    49   13   15 1 
    50   16   19 1 
    51   16   17 1 
    52   19   22 1 
    53   19   21 1 
    54   22   23 1 
