@<TRIPOS>MOLECULE
C:\Users\Praveer\PycharmProjects\pdb_to_mol2_converter\data\pdb\dgluol.pdb
   26    25     0     0     0
SMALL
GASTEIGER

@<TRIPOS>ATOM
      1 C1          0.0530    0.0550   -0.0820 C.3       1 DGL1        0.0000
      2 H11        -0.5040    0.2970    0.8510 H         1 DGL1        0.0000
      3 H12        -0.2150    0.8160   -0.8490 H         1 DGL1        0.0000
      4 O1         -0.3530   -1.2220   -0.5770 O.3       1 DGL1        0.0000
      5 HO1        -0.0920   -1.8530    0.1050 H         1 DGL1        0.0000
      6 C2          1.5500    0.0590    0.1540 C.3       1 DGL1        0.0000
      7 H2          2.0380   -0.4110   -0.7360 H         1 DGL1        0.0000
      8 O2          1.8530   -0.7400    1.3110 O.3       1 DGL1        0.0000
      9 HO2         2.8200   -0.7620    1.3620 H         1 DGL1        0.0000
     10 C3          2.0970    1.4780    0.2760 C.3       1 DGL1        0.0000
     11 H3          1.6470    2.0900   -0.5420 H         1 DGL1        0.0000
     12 O3          1.6970    2.0530    1.5350 O.3       1 DGL1        0.0000
     13 HO3         1.3410    1.3040    2.0340 H         1 DGL1        0.0000
     14 C4          3.6180    1.5100    0.1100 C.3       1 DGL1        0.0000
     15 H4          3.9050    0.8940   -0.7760 H         1 DGL1        0.0000
     16 O4          4.2480    0.9380    1.2680 O.3       1 DGL1        0.0000
     17 HO4         3.8010    1.3770    2.0060 H         1 DGL1        0.0000
     18 C5          4.1350    2.9210   -0.1160 C.3       1 DGL1        0.0000
     19 H5          3.7500    3.5920    0.6890 H         1 DGL1        0.0000
     20 O5          3.6550    3.3880   -1.3820 O.3       1 DGL1        0.0000
     21 HO5         4.2300    4.1470   -1.5580 H         1 DGL1        0.0000
     22 C6          5.6510    2.9950   -0.1450 C.3       1 DGL1        0.0000
     23 H61         6.0540    2.3910   -0.9910 H         1 DGL1        0.0000
     24 H62         6.0750    2.5900    0.8010 H         1 DGL1        0.0000
     25 O6          6.0690    4.3620   -0.2830 O.3       1 DGL1        0.0000
     26 HO6         6.9810    4.4220    0.0220 H         1 DGL1        0.0000
@<TRIPOS>BOND
     1   21   20 1 
     2   20   18 1 
     3   23   22 1 
     4    3    1 1 
     5   15   14 1 
     6    7    6 1 
     7    4    1 1 
     8    4    5 1 
     9   11   10 1 
    10   25   22 1 
    11   25   26 1 
    12   22   18 1 
    13   22   24 1 
    14   18   14 1 
    15   18   19 1 
    16    1    6 1 
    17    1    2 1 
    18   14   10 1 
    19   14   16 1 
    20    6   10 1 
    21    6    8 1 
    22   10   12 1 
    23   16   17 1 
    24    8    9 1 
    25   12   13 1 
