@<TRIPOS>MOLECULE
C:\Users\Praveer\PycharmProjects\pdb_to_mol2_converter\data\pdb\dglya.pdb
   12    11     0     0     0
SMALL
GASTEIGER

@<TRIPOS>ATOM
      1 C1          1.2520   -0.0390    0.0300 C.2       1 DGL1        0.0000
      2 O1A         0.4010   -0.2230   -0.8810 O.co2     1 DGL1        0.0000
      3 O1B         1.6790   -0.8240    0.9090 O.co2     1 DGL1        0.0000
      4 C2          1.8850    1.3960    0.0640 C.3       1 DGL1        0.0000
      5 H2          1.6810    1.8260    1.0680 H         1 DGL1        0.0000
      6 O2          1.3250    2.2670   -0.9480 O.3       1 DGL1        0.0000
      7 HO2         0.6990    1.6300   -1.3450 H         1 DGL1        0.0000
      8 C3          3.3760    1.2510   -0.1540 C.3       1 DGL1        0.0000
      9 H31         3.5810    0.7880   -1.1450 H         1 DGL1        0.0000
     10 H32         3.8260    0.6060    0.6350 H         1 DGL1        0.0000
     11 O4          3.9830    2.5470   -0.0980 O.3       1 DGL1        0.0000
     12 HO4         3.3120    3.0900   -0.5380 H         1 DGL1        0.0000
@<TRIPOS>BOND
     1    7    6 1 
     2    9    8 1 
     3    6    4 1 
     4    2    1 ar
     5   12   11 1 
     6    8   11 1 
     7    8    4 1 
     8    8   10 1 
     9    1    4 1 
    10    1    3 ar
    11    4    5 1 
