@<TRIPOS>MOLECULE
C:\Users\Praveer\PycharmProjects\pdb_to_mol2_converter\data\pdb\dgpa.pdb
  132   131     0     0     0
SMALL
GASTEIGER

@<TRIPOS>ATOM
      1 P           1.5450    0.0460   -0.0350 P.3       1 DGP1        0.0000
      2 O13         2.0740   -0.4620   -1.3120 O.2       1 DGP1        0.0000
      3 O14         2.0910   -0.5040    1.2160 O.3       1 DGP1        0.0000
      4 O12         1.9890    1.5480   -0.0120 O.3       1 DGP1        0.0000
      5 H12         2.9480    1.5410   -0.0100 H         1 DGP1        0.0000
      6 O11        -0.0360    0.0300   -0.0320 O.3       1 DGP1        0.0000
      7 C1         -0.6860   -1.2250   -0.2550 C.3       1 DGP1        0.0000
      8 HA         -0.2640   -2.0270    0.3990 H         1 DGP1        0.0000
      9 HB         -0.5640   -1.5300   -1.3200 H         1 DGP1        0.0000
     10 C2         -2.1990   -1.1190    0.0620 C.3       1 DGP1        0.0000
     11 HS         -2.5970   -0.2800   -0.5580 H         1 DGP1        0.0000
     12 O21        -2.3430   -0.8740    1.4740 O.3       1 DGP1        0.0000
     13 C21        -3.3570   -0.1100    1.8150 C.2       1 DGP1        0.0000
     14 O22        -4.1940    0.3670    1.0680 O.2       1 DGP1        0.0000
     15 C22        -3.3440    0.0630    3.3350 C.3       1 DGP1        0.0000
     16 H2R        -2.3920    0.5610    3.6130 H         1 DGP1        0.0000
     17 H2S        -3.3620   -0.9490    3.7890 H         1 DGP1        0.0000
     18 C3         -2.9370   -2.4320   -0.3290 C.3       1 DGP1        0.0000
     19 HX         -2.4380   -3.2550    0.2300 H         1 DGP1        0.0000
     20 HY         -2.7810   -2.6370   -1.4130 H         1 DGP1        0.0000
     21 O31        -4.3320   -2.4140    0.0430 O.3       1 DGP1        0.0000
     22 C31        -5.1510   -1.8750   -0.8570 C.2       1 DGP1        0.0000
     23 O32        -4.8470   -1.5490   -1.9890 O.2       1 DGP1        0.0000
     24 C32        -6.5440   -1.7560   -0.2380 C.3       1 DGP1        0.0000
     25 H2X        -6.5030   -0.9390    0.5130 H         1 DGP1        0.0000
     26 H2Y        -6.7730   -2.7070    0.2850 H         1 DGP1        0.0000
     27 C23        -4.5490    0.8890    3.8350 C.3       1 DGP1        0.0000
     28 H3R        -5.4950    0.4290    3.4690 H         1 DGP1        0.0000
     29 H3S        -4.4940    1.9200    3.4160 H         1 DGP1        0.0000
     30 C24        -4.6100    0.9690    5.3660 C.3       1 DGP1        0.0000
     31 H4R        -3.6750    1.4360    5.7490 H         1 DGP1        0.0000
     32 H4S        -4.6690   -0.0620    5.7800 H         1 DGP1        0.0000
     33 C25        -5.8190    1.7760    5.8570 C.3       1 DGP1        0.0000
     34 H5R        -6.7460    1.3370    5.4250 H         1 DGP1        0.0000
     35 H5S        -5.7360    2.8220    5.4850 H         1 DGP1        0.0000
     36 C26        -5.9460    1.7920    7.3870 C.3       1 DGP1        0.0000
     37 H6R        -5.0270    2.2370    7.8300 H         1 DGP1        0.0000
     38 H6S        -6.0250    0.7430    7.7520 H         1 DGP1        0.0000
     39 C27        -7.1730    2.5810    7.8620 C.3       1 DGP1        0.0000
     40 H7R        -8.0820    2.1620    7.3750 H         1 DGP1        0.0000
     41 H7S        -7.0750    3.6410    7.5390 H         1 DGP1        0.0000
     42 C28        -7.3600    2.5300    9.3850 C.3       1 DGP1        0.0000
     43 H8R        -6.4610    2.9570    9.8820 H         1 DGP1        0.0000
     44 H8S        -7.4500    1.4670    9.7020 H         1 DGP1        0.0000
     45 C29        -8.6070    3.2970    9.8490 C.3       1 DGP1        0.0000
     46 H9R        -9.4920    2.8960    9.3040 H         1 DGP1        0.0000
     47 H9S        -8.4920    4.3690    9.5690 H         1 DGP1        0.0000
     48 C210       -8.8380    3.1800   11.3670 C.3       1 DGP1        0.0000
     49 H10R       -7.9230    3.5530   11.8780 H         1 DGP1        0.0000
     50 H10S       -8.9370    2.1030   11.6260 H         1 DGP1        0.0000
     51 C211      -10.0770    3.9280   11.7970 C.2       1 DGP1        0.0000
     52 H11R      -10.9880    3.6710   11.2350 H         1 DGP1        0.0000
     53 C212      -10.1530    4.8720   12.7540 C.2       1 DGP1        0.0000
     54 H12R      -11.1260    5.3500   12.9510 H         1 DGP1        0.0000
     55 C213       -9.0210    5.3540   13.6270 C.3       1 DGP1        0.0000
     56 H13R       -8.2500    4.5630   13.7680 H         1 DGP1        0.0000
     57 H13S       -9.4040    5.6000   14.6430 H         1 DGP1        0.0000
     58 C214       -8.3300    6.6010   13.0450 C.3       1 DGP1        0.0000
     59 H14R       -9.0710    7.4230   12.9310 H         1 DGP1        0.0000
     60 H14S       -7.9270    6.3630   12.0340 H         1 DGP1        0.0000
     61 C215       -7.1760    7.0930   13.9300 C.3       1 DGP1        0.0000
     62 H15R       -6.4300    6.2750   14.0430 H         1 DGP1        0.0000
     63 H15S       -7.5700    7.3340   14.9430 H         1 DGP1        0.0000
     64 C216       -6.4760    8.3330   13.3570 C.3       1 DGP1        0.0000
     65 H16R       -7.2210    9.1520   13.2440 H         1 DGP1        0.0000
     66 H16S       -6.0810    8.0930   12.3440 H         1 DGP1        0.0000
     67 C217       -5.3230    8.8210   14.2440 C.3       1 DGP1        0.0000
     68 H17R       -4.5740    8.0040   14.3510 H         1 DGP1        0.0000
     69 H17S       -5.7180    9.0520   15.2590 H         1 DGP1        0.0000
     70 C218       -4.6280   10.0680   13.6810 C.3       1 DGP1        0.0000
     71 H18R       -5.3770   10.8840   13.5710 H         1 DGP1        0.0000
     72 H18S       -4.2290    9.8370   12.6670 H         1 DGP1        0.0000
     73 C219       -3.4800   10.5590   14.5720 C.3       1 DGP1        0.0000
     74 H19R       -2.7350    9.7380   14.6810 H         1 DGP1        0.0000
     75 H19S       -3.8840   10.7790   15.5870 H         1 DGP1        0.0000
     76 C220       -2.7800   11.8060   14.0280 C.3       1 DGP1        0.0000
     77 H20R       -3.5010   12.6470   13.9340 H         1 DGP1        0.0000
     78 H20S       -2.3460   11.6020   13.0250 H         1 DGP1        0.0000
     79 H20T       -1.9590   12.1220   14.7080 H         1 DGP1        0.0000
     80 C33        -7.6410   -1.4510   -1.2820 C.3       1 DGP1        0.0000
     81 H3X        -7.6570   -2.2550   -2.0530 H         1 DGP1        0.0000
     82 H3Y        -7.4120   -0.4920   -1.8000 H         1 DGP1        0.0000
     83 C34        -9.0300   -1.3540   -0.6370 C.3       1 DGP1        0.0000
     84 H4X        -9.0340   -0.5160    0.0960 H         1 DGP1        0.0000
     85 H4Y        -9.2350   -2.2940   -0.0760 H         1 DGP1        0.0000
     86 C35       -10.1530   -1.1360   -1.6610 C.3       1 DGP1        0.0000
     87 H5X       -10.1380   -1.9730   -2.3950 H         1 DGP1        0.0000
     88 H5Y        -9.9640   -0.1930   -2.2200 H         1 DGP1        0.0000
     89 C36       -11.5400   -1.0700   -1.0060 C.3       1 DGP1        0.0000
     90 H6X       -11.5740   -0.2050   -0.3060 H         1 DGP1        0.0000
     91 H6Y       -11.7000   -1.9950   -0.4070 H         1 DGP1        0.0000
     92 C37       -12.6770   -0.9410   -2.0280 C.3       1 DGP1        0.0000
     93 H7X       -12.6310   -1.8050   -2.7290 H         1 DGP1        0.0000
     94 H7Y       -12.5330   -0.0130   -2.6250 H         1 DGP1        0.0000
     95 C38       -14.0630   -0.9090   -1.3670 C.3       1 DGP1        0.0000
     96 H8X       -14.1330   -0.0170   -0.7060 H         1 DGP1        0.0000
     97 H8Y       -14.1780   -1.8130   -0.7280 H         1 DGP1        0.0000
     98 C39       -15.2100   -0.8760   -2.3880 C.3       1 DGP1        0.0000
     99 H9X       -15.1150   -1.7660   -3.0520 H         1 DGP1        0.0000
    100 H9Y       -15.1050    0.0340   -3.0210 H         1 DGP1        0.0000
    101 C310      -16.5950   -0.8770   -1.7130 C.3       1 DGP1        0.0000
    102 H10X      -16.6560    0.0240   -1.0640 H         1 DGP1        0.0000
    103 H10Y      -16.6560   -1.7610   -1.0400 H         1 DGP1        0.0000
    104 C311      -17.7120   -0.9340   -2.7280 C.2       1 DGP1        0.0000
    105 H11X      -17.6760   -1.8130   -3.3900 H         1 DGP1        0.0000
    106 C312      -18.7020   -0.0390   -2.9040 C.2       1 DGP1        0.0000
    107 H12X      -19.4380   -0.2220   -3.7040 H         1 DGP1        0.0000
    108 C313      -18.9400    1.2280   -2.1190 C.3       1 DGP1        0.0000
    109 H13X      -18.3550    1.2530   -1.1740 H         1 DGP1        0.0000
    110 H13Y      -20.0120    1.2940   -1.8260 H         1 DGP1        0.0000
    111 C314      -18.5800    2.4790   -2.9400 C.3       1 DGP1        0.0000
    112 H14X      -19.1780    2.4980   -3.8800 H         1 DGP1        0.0000
    113 H14Y      -17.5030    2.4390   -3.2240 H         1 DGP1        0.0000
    114 C315      -18.8370    3.7820   -2.1690 C.3       1 DGP1        0.0000
    115 H15X      -18.2290    3.7790   -1.2360 H         1 DGP1        0.0000
    116 H15Y      -19.9090    3.8250   -1.8740 H         1 DGP1        0.0000
    117 C316      -18.4920    5.0310   -2.9910 C.3       1 DGP1        0.0000
    118 H16X      -19.1000    5.0320   -3.9230 H         1 DGP1        0.0000
    119 H16Y      -17.4200    4.9880   -3.2870 H         1 DGP1        0.0000
    120 C317      -18.7480    6.3350   -2.2230 C.3       1 DGP1        0.0000
    121 H17X      -18.1320    6.3400   -1.2960 H         1 DGP1        0.0000
    122 H17Y      -19.8180    6.3730   -1.9180 H         1 DGP1        0.0000
    123 C318      -18.4190    7.5840   -3.0530 C.3       1 DGP1        0.0000
    124 H18X      -19.0360    7.5780   -3.9800 H         1 DGP1        0.0000
    125 H18Y      -17.3490    7.5470   -3.3580 H         1 DGP1        0.0000
    126 C319      -18.6780    8.8880   -2.2880 C.3       1 DGP1        0.0000
    127 H19X      -18.0590    8.8890   -1.3620 H         1 DGP1        0.0000
    128 H19Y      -19.7470    8.9140   -1.9760 H         1 DGP1        0.0000
    129 C320      -18.3620   10.1430   -3.1060 C.3       1 DGP1        0.0000
    130 H20X      -18.9870   10.1760   -4.0240 H         1 DGP1        0.0000
    131 H20Y      -17.2930   10.1500   -3.4100 H         1 DGP1        0.0000
    132 H20Z      -18.5640   11.0590   -2.5100 H         1 DGP1        0.0000
@<TRIPOS>BOND
     1  130  129 1 
     2  124  123 1 
     3  118  117 1 
     4  112  111 1 
     5  107  106 1 
     6  131  129 1 
     7  105  104 1 
     8  125  123 1 
     9  119  117 1 
    10  113  111 1 
    11  129  132 1 
    12  129  126 1 
    13  123  126 1 
    14  123  120 1 
    15   99   98 1 
    16  100   98 1 
    17  117  120 1 
    18  117  114 1 
    19  111  114 1 
    20  111  108 1 
    21  106  104 2 
    22  106  108 1 
    23   93   92 1 
    24  104  101 1 
    25   94   92 1 
    26   87   86 1 
    27   98  101 1 
    28   98   95 1 
    29  126  128 1 
    30  126  127 1 
    31  120  122 1 
    32  120  121 1 
    33   88   86 1 
    34  114  116 1 
    35  114  115 1 
    36  108  110 1 
    37  108  109 1 
    38   81   80 1 
    39   92   95 1 
    40   92   89 1 
    41   23   22 2 
    42   82   80 1 
    43  101  102 1 
    44  101  103 1 
    45   86   89 1 
    46   86   83 1 
    47   20   18 1 
    48   95   97 1 
    49   95   96 1 
    50    9    7 1 
    51    2    1 2 
    52   80   83 1 
    53   80   24 1 
    54   89   91 1 
    55   89   90 1 
    56   22   24 1 
    57   22   21 1 
    58   83   85 1 
    59   83   84 1 
    60   11   10 1 
    61   18   21 1 
    62   18   10 1 
    63   18   19 1 
    64    7    6 1 
    65    7   10 1 
    66    7    8 1 
    67   24   26 1 
    68   24   25 1 
    69    1    6 1 
    70    1    4 1 
    71    1    3 1 
    72    4    5 1 
    73   10   12 1 
    74   14   13 2 
    75   12   13 1 
    76   13   15 1 
    77   15   16 1 
    78   15   17 1 
    79   15   27 1 
    80   29   27 1 
    81   28   27 1 
    82   27   30 1 
    83   30   31 1 
    84   30   32 1 
    85   30   33 1 
    86   34   33 1 
    87   35   33 1 
    88   33   36 1 
    89   40   39 1 
    90   36   38 1 
    91   36   37 1 
    92   36   39 1 
    93   41   39 1 
    94   39   42 1 
    95   46   45 1 
    96   42   44 1 
    97   42   45 1 
    98   42   43 1 
    99   47   45 1 
   100   45   48 1 
   101   52   51 1 
   102   48   50 1 
   103   48   51 1 
   104   48   49 1 
   105   51   53 2 
   106   60   58 1 
   107   66   64 1 
   108   72   70 1 
   109   53   54 1 
   110   53   55 1 
   111   59   58 1 
   112   78   76 1 
   113   58   55 1 
   114   58   61 1 
   115   65   64 1 
   116   64   61 1 
   117   64   67 1 
   118   71   70 1 
   119   55   56 1 
   120   55   57 1 
   121   70   67 1 
   122   70   73 1 
   123   61   62 1 
   124   61   63 1 
   125   77   76 1 
   126   76   73 1 
   127   76   79 1 
   128   67   68 1 
   129   67   69 1 
   130   73   74 1 
   131   73   75 1 
