@<TRIPOS>MOLECULE
C:\Users\Praveer\PycharmProjects\pdb_to_mol2_converter\data\pdb\dgpc.pdb
  150   149     0     0     0
SMALL
GASTEIGER

@<TRIPOS>ATOM
      1 N           1.5080   -0.0060   -0.0050 N.4       1 DGP1        0.0000
      2 C13         2.0050   -0.7220   -1.2210 C.3       1 DGP1        0.0000
      3 H13A        1.6490   -1.7430   -1.2430 H         1 DGP1        0.0000
      4 H13B        3.0860   -0.7240   -1.2600 H         1 DGP1        0.0000
      5 H13C        1.6410   -0.2200   -2.1120 H         1 DGP1        0.0000
      6 C14         1.9870   -0.6880    1.2410 C.3       1 DGP1        0.0000
      7 H14A        3.0670   -0.6990    1.2940 H         1 DGP1        0.0000
      8 H14B        1.6270   -1.7070    1.2830 H         1 DGP1        0.0000
      9 H14C        1.6080   -0.1660    2.1160 H         1 DGP1        0.0000
     10 C15         0.0050   -0.0160    0.0040 C.3       1 DGP1        0.0000
     11 H15A       -0.4170   -1.0040    0.0010 H         1 DGP1        0.0000
     12 H15B       -0.3950    0.5530   -0.8400 H         1 DGP1        0.0000
     13 H15C       -0.3710    0.5410    0.8660 H         1 DGP1        0.0000
     14 C12         1.9720    1.4440   -0.0080 C.3       1 DGP1        0.0000
     15 H12A        3.0380    1.5210    0.1350 H         1 DGP1        0.0000
     16 H12B        1.5140    1.9500    0.8500 H         1 DGP1        0.0000
     17 C11         1.5690    2.3000   -1.2260 C.3       1 DGP1        0.0000
     18 H11A        0.9010    1.7630   -1.9370 H         1 DGP1        0.0000
     19 H11B        2.4850    2.5740   -1.7960 H         1 DGP1        0.0000
     20 P          -0.4640    3.3720   -0.0420 P.3       1 DGP1        0.0000
     21 O13        -1.3480    2.5530   -0.9020 O.2       1 DGP1        0.0000
     22 O14        -0.2190    2.8400    1.3190 O.3       1 DGP1        0.0000
     23 O12         0.9490    3.4920   -0.7560 O.3       1 DGP1        0.0000
     24 O11        -0.9840    4.8630    0.0260 O.3       1 DGP1        0.0000
     25 C1         -2.3560    5.0820    0.3730 C.3       1 DGP1        0.0000
     26 HA         -2.6460    4.4990    1.2800 H         1 DGP1        0.0000
     27 HB         -3.0150    4.7800   -0.4740 H         1 DGP1        0.0000
     28 C2         -2.6110    6.5780    0.6890 C.3       1 DGP1        0.0000
     29 HS         -2.3150    7.1540   -0.2210 H         1 DGP1        0.0000
     30 O21        -1.8200    6.9320    1.8410 O.3       1 DGP1        0.0000
     31 C21        -1.3800    8.1740    1.8610 C.2       1 DGP1        0.0000
     32 O22        -1.5820    9.0290    1.0170 O.2       1 DGP1        0.0000
     33 C22        -0.5840    8.3890    3.1480 C.3       1 DGP1        0.0000
     34 H2R         0.2700    7.6810    3.1450 H         1 DGP1        0.0000
     35 H2S        -1.2480    8.1410    4.0010 H         1 DGP1        0.0000
     36 C3         -4.1200    6.8310    0.9790 C.3       1 DGP1        0.0000
     37 HX         -4.3980    6.1700    1.8290 H         1 DGP1        0.0000
     38 HY         -4.7260    6.5010    0.1040 H         1 DGP1        0.0000
     39 O31        -4.3900    8.1960    1.3630 O.3       1 DGP1        0.0000
     40 C31        -4.6070    9.0360    0.3530 C.2       1 DGP1        0.0000
     41 O32        -4.7260    8.7220   -0.8170 O.2       1 DGP1        0.0000
     42 C32        -4.7080   10.4550    0.9120 C.3       1 DGP1        0.0000
     43 H2X        -3.6850   10.7630    1.2170 H         1 DGP1        0.0000
     44 H2Y        -5.3530   10.4260    1.8140 H         1 DGP1        0.0000
     45 C23        -0.0750    9.8410    3.2800 C.3       1 DGP1        0.0000
     46 H3R        -0.9340   10.5470    3.1990 H         1 DGP1        0.0000
     47 H3S         0.6250   10.0690    2.4430 H         1 DGP1        0.0000
     48 C24         0.6380   10.0960    4.6140 C.3       1 DGP1        0.0000
     49 H4R         1.5040    9.4040    4.7090 H         1 DGP1        0.0000
     50 H4S        -0.0660    9.8730    5.4480 H         1 DGP1        0.0000
     51 C25         1.1290   11.5440    4.7460 C.3       1 DGP1        0.0000
     52 H5R         0.2650   12.2320    4.5990 H         1 DGP1        0.0000
     53 H5S         1.8680   11.7540    3.9420 H         1 DGP1        0.0000
     54 C26         1.7670   11.8360    6.1110 C.3       1 DGP1        0.0000
     55 H6R         2.6370   11.1600    6.2650 H         1 DGP1        0.0000
     56 H6S         1.0230   11.6200    6.9110 H         1 DGP1        0.0000
     57 C27         2.2290   13.2940    6.2410 C.3       1 DGP1        0.0000
     58 H7R         1.3650   13.9660    6.0340 H         1 DGP1        0.0000
     59 H7S         3.0090   13.5010    5.4750 H         1 DGP1        0.0000
     60 C28         2.7870   13.6200    7.6330 C.3       1 DGP1        0.0000
     61 H8R         3.6570   12.9610    7.8460 H         1 DGP1        0.0000
     62 H8S         2.0040   13.4050    8.3950 H         1 DGP1        0.0000
     63 C29         3.2200   15.0880    7.7640 C.3       1 DGP1        0.0000
     64 H9R         2.3550   15.7370    7.4960 H         1 DGP1        0.0000
     65 H9S         4.0350   15.2860    7.0310 H         1 DGP1        0.0000
     66 C210        3.7050   15.4340    9.1840 C.3       1 DGP1        0.0000
     67 H10R        4.5410   14.7430    9.4340 H         1 DGP1        0.0000
     68 H10S        2.8820   15.2180    9.9000 H         1 DGP1        0.0000
     69 C211        4.1130   16.8840    9.2920 C.2       1 DGP1        0.0000
     70 H11R        3.3530   17.6010    8.9460 H         1 DGP1        0.0000
     71 C212        5.2960   17.3560    9.7290 C.2       1 DGP1        0.0000
     72 H12R        5.4620   18.4440    9.7360 H         1 DGP1        0.0000
     73 C213        6.4530   16.5340   10.2410 C.3       1 DGP1        0.0000
     74 H13R        6.1060   15.5730   10.6820 H         1 DGP1        0.0000
     75 H13S        6.9740   17.0810   11.0580 H         1 DGP1        0.0000
     76 C214        7.4730   16.2150    9.1330 C.3       1 DGP1        0.0000
     77 H14R        7.8660   17.1620    8.6990 H         1 DGP1        0.0000
     78 H14S        6.9670   15.6510    8.3160 H         1 DGP1        0.0000
     79 C215        8.6530   15.3800    9.6510 C.3       1 DGP1        0.0000
     80 H15R        8.2640   14.4310   10.0830 H         1 DGP1        0.0000
     81 H15S        9.1640   15.9390   10.4660 H         1 DGP1        0.0000
     82 C216        9.6720   15.0490    8.5530 C.3       1 DGP1        0.0000
     83 H16R       10.0620   15.9980    8.1200 H         1 DGP1        0.0000
     84 H16S        9.1610   14.4910    7.7370 H         1 DGP1        0.0000
     85 C217       10.8490   14.2130    9.0740 C.3       1 DGP1        0.0000
     86 H17R       10.4580   13.2620    9.5010 H         1 DGP1        0.0000
     87 H17S       11.3540   14.7700    9.8950 H         1 DGP1        0.0000
     88 C218       11.8760   13.8890    7.9820 C.3       1 DGP1        0.0000
     89 H18R       12.2650   14.8400    7.5530 H         1 DGP1        0.0000
     90 H18S       11.3730   13.3300    7.1610 H         1 DGP1        0.0000
     91 C219       13.0550   13.0590    8.5060 C.3       1 DGP1        0.0000
     92 H19R       12.6610   12.1090    8.9360 H         1 DGP1        0.0000
     93 H19S       13.5480   13.6190    9.3330 H         1 DGP1        0.0000
     94 C220       14.0940   12.7320    7.4300 C.3       1 DGP1        0.0000
     95 H20R       14.5190   13.6660    7.0040 H         1 DGP1        0.0000
     96 H20S       13.6290   12.1500    6.6060 H         1 DGP1        0.0000
     97 H20T       14.9250   12.1320    7.8590 H         1 DGP1        0.0000
     98 C33        -5.2750   11.4670   -0.1080 C.3       1 DGP1        0.0000
     99 H3X        -6.2880   11.1390   -0.4370 H         1 DGP1        0.0000
    100 H3Y        -4.6220   11.4990   -1.0100 H         1 DGP1        0.0000
    101 C34        -5.3780   12.8770    0.4880 C.3       1 DGP1        0.0000
    102 H4X        -4.3600   13.2290    0.7700 H         1 DGP1        0.0000
    103 H4Y        -5.9900   12.8340    1.4170 H         1 DGP1        0.0000
    104 C35        -6.0130   13.8900   -0.4740 C.3       1 DGP1        0.0000
    105 H5X        -7.0290   13.5320   -0.7570 H         1 DGP1        0.0000
    106 H5Y        -5.4040   13.9490   -1.4040 H         1 DGP1        0.0000
    107 C36        -6.1310   15.2900    0.1450 C.3       1 DGP1        0.0000
    108 H6X        -5.1130   15.6710    0.3850 H         1 DGP1        0.0000
    109 H6Y        -6.6970   15.2140    1.1010 H         1 DGP1        0.0000
    110 C37        -6.8450   16.2920   -0.7730 C.3       1 DGP1        0.0000
    111 H7X        -7.8580   15.8990   -1.0150 H         1 DGP1        0.0000
    112 H7Y        -6.2810   16.3850   -1.7280 H         1 DGP1        0.0000
    113 C38        -6.9880   17.6790   -0.1310 C.3       1 DGP1        0.0000
    114 H8X        -5.9760   18.0990    0.0640 H         1 DGP1        0.0000
    115 H8Y        -7.5040   17.5710    0.8490 H         1 DGP1        0.0000
    116 C39        -7.7840   18.6600   -1.0040 C.3       1 DGP1        0.0000
    117 H9X        -8.7860   18.2170   -1.2050 H         1 DGP1        0.0000
    118 H9Y        -7.2630   18.7800   -1.9810 H         1 DGP1        0.0000
    119 C310       -7.9500   20.0380   -0.3360 C.3       1 DGP1        0.0000
    120 H10X       -6.9330   20.4500   -0.1530 H         1 DGP1        0.0000
    121 H10Y       -8.4190   19.8890    0.6620 H         1 DGP1        0.0000
    122 C311       -8.8060   20.9620   -1.1670 C.2       1 DGP1        0.0000
    123 H11X       -9.8190   20.5800   -1.3700 H         1 DGP1        0.0000
    124 C312       -8.4590   22.1590   -1.6800 C.2       1 DGP1        0.0000
    125 H12X       -9.2020   22.7070   -2.2800 H         1 DGP1        0.0000
    126 C313       -7.1340   22.8670   -1.5330 C.3       1 DGP1        0.0000
    127 H13X       -6.5080   22.4250   -0.7280 H         1 DGP1        0.0000
    128 H13Y       -7.3050   23.9290   -1.2500 H         1 DGP1        0.0000
    129 C314       -6.3250   22.8340   -2.8430 C.3       1 DGP1        0.0000
    130 H14X       -6.9160   23.3020   -3.6620 H         1 DGP1        0.0000
    131 H14Y       -6.1260   21.7760   -3.1290 H         1 DGP1        0.0000
    132 C315       -4.9840   23.5720   -2.7230 C.3       1 DGP1        0.0000
    133 H15X       -4.3800   23.1000   -1.9160 H         1 DGP1        0.0000
    134 H15Y       -5.1750   24.6290   -2.4290 H         1 DGP1        0.0000
    135 C316       -4.1810   23.5520   -4.0310 C.3       1 DGP1        0.0000
    136 H16X       -4.7870   24.0240   -4.8360 H         1 DGP1        0.0000
    137 H16Y       -3.9920   22.4950   -4.3250 H         1 DGP1        0.0000
    138 C317       -2.8410   24.2900   -3.9140 C.3       1 DGP1        0.0000
    139 H17X       -2.2300   23.8120   -3.1160 H         1 DGP1        0.0000
    140 H17Y       -3.0300   25.3440   -3.6100 H         1 DGP1        0.0000
    141 C318       -2.0470   24.2820   -5.2280 C.3       1 DGP1        0.0000
    142 H18X       -2.6590   24.7600   -6.0260 H         1 DGP1        0.0000
    143 H18Y       -1.8570   23.2280   -5.5330 H         1 DGP1        0.0000
    144 C319       -0.7070   25.0200   -5.1150 C.3       1 DGP1        0.0000
    145 H19X       -0.0990   24.5390   -4.3150 H         1 DGP1        0.0000
    146 H19Y       -0.9030   26.0710   -4.7990 H         1 DGP1        0.0000
    147 C320        0.0920   25.0280   -6.4210 C.3       1 DGP1        0.0000
    148 H20X       -0.4860   25.5270   -7.2280 H         1 DGP1        0.0000
    149 H20Y        0.3190   23.9890   -6.7430 H         1 DGP1        0.0000
    150 H20Z        1.0520   25.5720   -6.2880 H         1 DGP1        0.0000
@<TRIPOS>BOND
     1  148  147 1 
     2  149  147 1 
     3  147  150 1 
     4  147  144 1 
     5  142  141 1 
     6  143  141 1 
     7  141  144 1 
     8  141  138 1 
     9  144  146 1 
    10  144  145 1 
    11  136  135 1 
    12  137  135 1 
    13  135  138 1 
    14  135  132 1 
    15  138  140 1 
    16  138  139 1 
    17  130  129 1 
    18  131  129 1 
    19  129  132 1 
    20  129  126 1 
    21  132  134 1 
    22  132  133 1 
    23  125  124 1 
    24    5    2 1 
    25  118  116 1 
    26   18   17 1 
    27   19   17 1 
    28  112  110 1 
    29  124  126 1 
    30  124  122 2 
    31  126  128 1 
    32  126  127 1 
    33  106  104 1 
    34  123  122 1 
    35    4    2 1 
    36    3    2 1 
    37   17   23 1 
    38   17   14 1 
    39    2    1 1 
    40  117  116 1 
    41  122  119 1 
    42  111  110 1 
    43  100   98 1 
    44  116  119 1 
    45  116  113 1 
    46   21   20 2 
    47   12   10 1 
    48   41   40 2 
    49  110  113 1 
    50  110  107 1 
    51  105  104 1 
    52   23   20 1 
    53   27   25 1 
    54  104  107 1 
    55  104  101 1 
    56   99   98 1 
    57  119  120 1 
    58  119  121 1 
    59   29   28 1 
    60  113  114 1 
    61  113  115 1 
    62   98  101 1 
    63   98   42 1 
    64   20   24 1 
    65   20   22 1 
    66   14    1 1 
    67   14   15 1 
    68   14   16 1 
    69    1   10 1 
    70    1    6 1 
    71   11   10 1 
    72   10   13 1 
    73   24   25 1 
    74   38   36 1 
    75  107  108 1 
    76  107  109 1 
    77   40   42 1 
    78   40   39 1 
    79   25   28 1 
    80   25   26 1 
    81  101  102 1 
    82  101  103 1 
    83   28   36 1 
    84   28   30 1 
    85   42   43 1 
    86   42   44 1 
    87   36   39 1 
    88   36   37 1 
    89   32   31 2 
    90    6    8 1 
    91    6    7 1 
    92    6    9 1 
    93   30   31 1 
    94   31   33 1 
    95   47   45 1 
    96   34   33 1 
    97   33   45 1 
    98   33   35 1 
    99   46   45 1 
   100   45   48 1 
   101   53   51 1 
   102   52   51 1 
   103   48   49 1 
   104   48   51 1 
   105   48   50 1 
   106   51   54 1 
   107   59   57 1 
   108   58   57 1 
   109   54   57 1 
   110   54   55 1 
   111   54   56 1 
   112   57   60 1 
   113   96   94 1 
   114   95   94 1 
   115   65   63 1 
   116   90   88 1 
   117   94   97 1 
   118   94   91 1 
   119   64   63 1 
   120   89   88 1 
   121   60   63 1 
   122   60   61 1 
   123   60   62 1 
   124   84   82 1 
   125   63   66 1 
   126   88   91 1 
   127   88   85 1 
   128   83   82 1 
   129   78   76 1 
   130   91   92 1 
   131   91   93 1 
   132   82   85 1 
   133   82   79 1 
   134   77   76 1 
   135   70   69 1 
   136   85   86 1 
   137   85   87 1 
   138   76   79 1 
   139   76   73 1 
   140   66   69 1 
   141   66   67 1 
   142   66   68 1 
   143   69   71 2 
   144   79   80 1 
   145   79   81 1 
   146   71   72 1 
   147   71   73 1 
   148   73   74 1 
   149   73   75 1 
