@<TRIPOS>MOLECULE
C:\Users\Praveer\PycharmProjects\pdb_to_mol2_converter\data\pdb\dgpe.pdb
  141   140     0     0     0
SMALL
GASTEIGER

@<TRIPOS>ATOM
      1 N           1.0270    0.3870   -0.6580 N.4       1 DGP1        0.0000
      2 HN1         0.0410    0.2730   -0.3630 H         1 DGP1        0.0000
      3 HN2         1.5000   -0.5240   -0.8260 H         1 DGP1        0.0000
      4 HN3         1.0240    0.8800   -1.5990 H         1 DGP1        0.0000
      5 C12         1.8330    1.2650    0.2800 C.3       1 DGP1        0.0000
      6 H12A        1.9120    0.7530    1.2560 H         1 DGP1        0.0000
      7 H12B        1.2730    2.2070    0.4300 H         1 DGP1        0.0000
      8 C11         3.2290    1.6130   -0.2770 C.3       1 DGP1        0.0000
      9 H11A        3.8340    0.6910   -0.4300 H         1 DGP1        0.0000
     10 H11B        3.7660    2.2100    0.4950 H         1 DGP1        0.0000
     11 P           2.8410    1.7430   -2.8620 P.3       1 DGP1        0.0000
     12 O13         3.3840    0.3770   -2.8530 O.3       1 DGP1        0.0000
     13 O14         1.3580    1.8010   -2.9440 O.2       1 DGP1        0.0000
     14 O12         3.1620    2.4040   -1.4620 O.3       1 DGP1        0.0000
     15 O11         3.5550    2.6730   -3.9150 O.3       1 DGP1        0.0000
     16 C1          3.2640    2.5470   -5.3080 C.3       1 DGP1        0.0000
     17 HA          2.1630    2.5350   -5.4910 H         1 DGP1        0.0000
     18 HB          3.7080    1.6060   -5.7090 H         1 DGP1        0.0000
     19 C2          3.8540    3.7490   -6.0970 C.3       1 DGP1        0.0000
     20 HS          4.9370    3.8160   -5.8310 H         1 DGP1        0.0000
     21 O21         3.1210    4.9280   -5.7110 O.3       1 DGP1        0.0000
     22 C21         3.8130    6.0500   -5.6990 C.2       1 DGP1        0.0000
     23 O22         5.0000    6.1730   -5.9470 O.2       1 DGP1        0.0000
     24 C22         2.8680    7.2030   -5.3560 C.3       1 DGP1        0.0000
     25 H2R         2.4790    7.0340   -4.3310 H         1 DGP1        0.0000
     26 H2S         2.0160    7.1690   -6.0660 H         1 DGP1        0.0000
     27 C3          3.7370    3.5320   -7.6360 C.3       1 DGP1        0.0000
     28 HX          2.6580    3.3690   -7.8530 H         1 DGP1        0.0000
     29 HY          4.2660    2.5930   -7.9220 H         1 DGP1        0.0000
     30 O31         4.1820    4.6770   -8.3980 O.3       1 DGP1        0.0000
     31 C31         5.4800    4.6960   -8.7010 C.2       1 DGP1        0.0000
     32 O32         6.2690    3.7930   -8.4900 O.2       1 DGP1        0.0000
     33 C32         5.8060    6.0280   -9.3830 C.3       1 DGP1        0.0000
     34 H2X         5.7510    6.8190   -8.6060 H         1 DGP1        0.0000
     35 H2Y         5.0220    6.2230  -10.1440 H         1 DGP1        0.0000
     36 C23         3.5730    8.5750   -5.4440 C.3       1 DGP1        0.0000
     37 H3R         4.0130    8.7030   -6.4600 H         1 DGP1        0.0000
     38 H3S         4.4110    8.6090   -4.7100 H         1 DGP1        0.0000
     39 C24         2.6200    9.7470   -5.1720 C.3       1 DGP1        0.0000
     40 H4R         2.1710    9.6260   -4.1610 H         1 DGP1        0.0000
     41 H4S         1.7940    9.7200   -5.9170 H         1 DGP1        0.0000
     42 C25         3.3220   11.1110   -5.2520 C.3       1 DGP1        0.0000
     43 H5R         3.8080   11.2100   -6.2490 H         1 DGP1        0.0000
     44 H5S         4.1240   11.1530   -4.4810 H         1 DGP1        0.0000
     45 C26         2.3600   12.2910   -5.0470 C.3       1 DGP1        0.0000
     46 H6R         1.8760   12.2010   -4.0490 H         1 DGP1        0.0000
     47 H6S         1.5580   12.2370   -5.8180 H         1 DGP1        0.0000
     48 C27         3.0600   13.6560   -5.1490 C.3       1 DGP1        0.0000
     49 H7R         3.5870   13.7170   -6.1270 H         1 DGP1        0.0000
     50 H7S         3.8270   13.7320   -4.3460 H         1 DGP1        0.0000
     51 C28         2.0900   14.8420   -5.0350 C.3       1 DGP1        0.0000
     52 H8R         1.5640   14.7960   -4.0550 H         1 DGP1        0.0000
     53 H8S         1.3210   14.7580   -5.8360 H         1 DGP1        0.0000
     54 C29         2.7960   16.2020   -5.1650 C.3       1 DGP1        0.0000
     55 H9R         3.3620   16.2160   -6.1240 H         1 DGP1        0.0000
     56 H9S         3.5320   16.3040   -4.3350 H         1 DGP1        0.0000
     57 C210        1.8130   17.3900   -5.1310 C.3       1 DGP1        0.0000
     58 H10R        1.2380   17.3270   -4.1800 H         1 DGP1        0.0000
     59 H10S        1.0820   17.2630   -5.9600 H         1 DGP1        0.0000
     60 C211        2.5240   18.7150   -5.2760 C.2       1 DGP1        0.0000
     61 H11R        3.1940   18.7820   -6.1480 H         1 DGP1        0.0000
     62 C212        2.4340   19.7750   -4.4500 C.2       1 DGP1        0.0000
     63 H12R        3.0270   20.6750   -4.6760 H         1 DGP1        0.0000
     64 C213        1.5750   19.8790   -3.2140 C.3       1 DGP1        0.0000
     65 H13R        0.6720   19.2320   -3.2900 H         1 DGP1        0.0000
     66 H13S        1.2020   20.9220   -3.0980 H         1 DGP1        0.0000
     67 C214        2.3430   19.4870   -1.9390 C.3       1 DGP1        0.0000
     68 H14R        3.2330   20.1450   -1.8180 H         1 DGP1        0.0000
     69 H14S        2.7070   18.4390   -2.0350 H         1 DGP1        0.0000
     70 C215        1.4740   19.5930   -0.6780 C.3       1 DGP1        0.0000
     71 H15R        0.5810   18.9390   -0.7970 H         1 DGP1        0.0000
     72 H15S        1.1130   20.6410   -0.5710 H         1 DGP1        0.0000
     73 C216        2.2250   19.1880    0.5970 C.3       1 DGP1        0.0000
     74 H16R        3.1160   19.8440    0.7190 H         1 DGP1        0.0000
     75 H16S        2.5880   18.1410    0.4890 H         1 DGP1        0.0000
     76 C217        1.3500   19.2880    1.8540 C.3       1 DGP1        0.0000
     77 H17R        0.4640   18.6260    1.7340 H         1 DGP1        0.0000
     78 H17S        0.9810   20.3330    1.9580 H         1 DGP1        0.0000
     79 C218        2.1020   18.8940    3.1340 C.3       1 DGP1        0.0000
     80 H18R        2.9900   19.5540    3.2520 H         1 DGP1        0.0000
     81 H18S        2.4690   17.8480    3.0330 H         1 DGP1        0.0000
     82 C219        1.2280   19.0010    4.3900 C.3       1 DGP1        0.0000
     83 H19R        0.3390   18.3410    4.2650 H         1 DGP1        0.0000
     84 H19S        0.8550   20.0470    4.4780 H         1 DGP1        0.0000
     85 C220        1.9620   18.6190    5.6780 C.3       1 DGP1        0.0000
     86 H20R        2.8390   19.2820    5.8360 H         1 DGP1        0.0000
     87 H20S        2.3210   17.5690    5.6240 H         1 DGP1        0.0000
     88 H20T        1.2870   18.7140    6.5550 H         1 DGP1        0.0000
     89 C33         7.2000    6.0490  -10.0540 C.3       1 DGP1        0.0000
     90 H3X         7.2690    5.2240  -10.7990 H         1 DGP1        0.0000
     91 H3Y         7.9890    5.8740   -9.2860 H         1 DGP1        0.0000
     92 C34         7.4790    7.3820  -10.7650 C.3       1 DGP1        0.0000
     93 H4X         7.4560    8.2050  -10.0160 H         1 DGP1        0.0000
     94 H4Y         6.6680    7.5750  -11.5030 H         1 DGP1        0.0000
     95 C35         8.8290    7.4090  -11.5000 C.3       1 DGP1        0.0000
     96 H5X         8.8480    6.5850  -12.2490 H         1 DGP1        0.0000
     97 H5Y         9.6480    7.2220  -10.7710 H         1 DGP1        0.0000
     98 C36         9.0840    8.7440  -12.2170 C.3       1 DGP1        0.0000
     99 H6X         9.1130    9.5630  -11.4640 H         1 DGP1        0.0000
    100 H6Y         8.2350    8.9500  -12.9070 H         1 DGP1        0.0000
    101 C37        10.3910    8.7550  -13.0260 C.3       1 DGP1        0.0000
    102 H7X        10.3590    7.9280  -13.7710 H         1 DGP1        0.0000
    103 H7Y        11.2490    8.5640  -12.3440 H         1 DGP1        0.0000
    104 C38        10.6200   10.0820  -13.7670 C.3       1 DGP1        0.0000
    105 H8X        10.7100   10.9060  -13.0240 H         1 DGP1        0.0000
    106 H8Y         9.7340   10.2980  -14.4050 H         1 DGP1        0.0000
    107 C39        11.8750   10.0630  -14.6550 C.3       1 DGP1        0.0000
    108 H9X        11.7780    9.2220  -15.3790 H         1 DGP1        0.0000
    109 H9Y        12.7650    9.8620  -14.0180 H         1 DGP1        0.0000
    110 C310       12.0770   11.3850  -15.4200 C.3       1 DGP1        0.0000
    111 H10X       12.1660   12.2020  -14.6700 H         1 DGP1        0.0000
    112 H10Y       11.1560   11.5920  -16.0100 H         1 DGP1        0.0000
    113 C311       13.2670   11.3250  -16.3480 C.2       1 DGP1        0.0000
    114 H11X       13.2090   10.5270  -17.1040 H         1 DGP1        0.0000
    115 C312       14.3590   12.1140  -16.3340 C.2       1 DGP1        0.0000
    116 H12X       15.1490   11.9300  -17.0790 H         1 DGP1        0.0000
    117 C313       14.6510   13.2580  -15.3930 C.3       1 DGP1        0.0000
    118 H13X       13.7460   13.5840  -14.8350 H         1 DGP1        0.0000
    119 H13Y       14.9980   14.1430  -15.9730 H         1 DGP1        0.0000
    120 C314       15.7400   12.8880  -14.3700 C.3       1 DGP1        0.0000
    121 H14X       16.6710   12.5880  -14.9020 H         1 DGP1        0.0000
    122 H14Y       15.3990   12.0160  -13.7650 H         1 DGP1        0.0000
    123 C315       16.0700   14.0480  -13.4200 C.3       1 DGP1        0.0000
    124 H15X       15.1480   14.3430  -12.8720 H         1 DGP1        0.0000
    125 H15Y       16.4050   14.9250  -14.0190 H         1 DGP1        0.0000
    126 C316       17.1640   13.6860  -12.4070 C.3       1 DGP1        0.0000
    127 H16X       18.0860   13.3900  -12.9570 H         1 DGP1        0.0000
    128 H16Y       16.8310   12.8070  -11.8090 H         1 DGP1        0.0000
    129 C317       17.4970   14.8430  -11.4550 C.3       1 DGP1        0.0000
    130 H17X       16.5790   15.1320  -10.8970 H         1 DGP1        0.0000
    131 H17Y       17.8210   15.7240  -12.0530 H         1 DGP1        0.0000
    132 C318       18.6030   14.4820  -10.4530 C.3       1 DGP1        0.0000
    133 H18X       19.5210   14.1930  -11.0130 H         1 DGP1        0.0000
    134 H18Y       18.2800   13.6010   -9.8550 H         1 DGP1        0.0000
    135 C319       18.9400   15.6370   -9.5020 C.3       1 DGP1        0.0000
    136 H19X       18.0180   15.9230   -8.9460 H         1 DGP1        0.0000
    137 H19Y       19.2510   16.5200  -10.1060 H         1 DGP1        0.0000
    138 C320       20.0470   15.2970   -8.5000 C.3       1 DGP1        0.0000
    139 H20X       20.9860   15.0330   -9.0340 H         1 DGP1        0.0000
    140 H20Y       19.7480   14.4330   -7.8690 H         1 DGP1        0.0000
    141 H20Z       20.2530   16.1630   -7.8360 H         1 DGP1        0.0000
@<TRIPOS>BOND
     1  114  113 1 
     2  116  115 1 
     3  113  115 2 
     4  113  110 1 
     5  115  117 1 
     6  112  110 1 
     7  119  117 1 
     8  110  111 1 
     9  110  107 1 
    10  117  118 1 
    11  117  120 1 
    12  108  107 1 
    13  121  120 1 
    14  107  109 1 
    15  107  104 1 
    16  106  104 1 
    17  120  122 1 
    18  120  123 1 
    19  125  123 1 
    20  102  101 1 
    21  104  101 1 
    22  104  105 1 
    23  123  124 1 
    24  123  126 1 
    25  101  103 1 
    26  101   98 1 
    27  127  126 1 
    28  100   98 1 
    29  126  128 1 
    30  126  129 1 
    31   96   95 1 
    32   98   95 1 
    33   98   99 1 
    34  131  129 1 
    35   94   92 1 
    36   95   97 1 
    37   95   92 1 
    38  129  130 1 
    39  129  132 1 
    40  133  132 1 
    41   90   89 1 
    42   92   89 1 
    43   92   93 1 
    44  132  134 1 
    45  132  135 1 
    46   35   33 1 
    47  137  135 1 
    48   89   33 1 
    49   89   91 1 
    50  135  136 1 
    51  135  138 1 
    52   33   31 1 
    53   33   34 1 
    54  139  138 1 
    55   31   32 2 
    56   31   30 1 
    57  138  140 1 
    58  138  141 1 
    59   30   27 1 
    60   29   27 1 
    61   28   27 1 
    62   27   19 1 
    63   37   36 1 
    64   43   42 1 
    65   61   60 1 
    66   49   48 1 
    67   55   54 1 
    68   19   20 1 
    69   19   21 1 
    70   19   16 1 
    71   26   24 1 
    72   59   57 1 
    73   23   22 2 
    74   41   39 1 
    75   53   51 1 
    76   47   45 1 
    77   21   22 1 
    78   18   16 1 
    79   22   24 1 
    80   17   16 1 
    81   36   24 1 
    82   36   39 1 
    83   36   38 1 
    84   24   25 1 
    85   16   15 1 
    86   60   57 1 
    87   60   62 2 
    88   42   39 1 
    89   42   45 1 
    90   42   44 1 
    91   39   40 1 
    92   54   57 1 
    93   54   51 1 
    94   54   56 1 
    95   48   45 1 
    96   48   51 1 
    97   48   50 1 
    98   57   58 1 
    99   45   46 1 
   100   51   52 1 
   101   63   62 1 
   102   62   64 1 
   103   15   11 1 
   104   65   64 1 
   105   64   66 1 
   106   64   67 1 
   107   13   11 2 
   108   11   12 1 
   109   11   14 1 
   110   69   67 1 
   111   67   68 1 
   112   67   70 1 
   113    4    1 1 
   114   14    8 1 
   115    3    1 1 
   116   71   70 1 
   117   70   72 1 
   118   70   73 1 
   119    1    2 1 
   120    1    5 1 
   121    9    8 1 
   122    8    5 1 
   123    8   10 1 
   124    5    7 1 
   125    5    6 1 
   126   75   73 1 
   127   73   74 1 
   128   73   76 1 
   129   77   76 1 
   130   76   78 1 
   131   76   79 1 
   132   81   79 1 
   133   79   80 1 
   134   79   82 1 
   135   83   82 1 
   136   82   84 1 
   137   82   85 1 
   138   87   85 1 
   139   85   86 1 
   140   85   88 1 
