@<TRIPOS>MOLECULE
C:\Users\Praveer\PycharmProjects\pdb_to_mol2_converter\data\pdb\dgpg.pdb
  143   142     0     0     0
SMALL
GASTEIGER

@<TRIPOS>ATOM
      1 C13        -0.0940   -0.0180    0.2260 C.3       1 DGP1        0.0000
      2 H13A       -0.5680    0.1640   -0.7650 H         1 DGP1        0.0000
      3 H13B       -0.4680   -0.9860    0.6250 H         1 DGP1        0.0000
      4 OC3        -0.4510    1.0520    1.0970 O.3       1 DGP1        0.0000
      5 HO3        -0.0520    1.8240    0.6610 H         1 DGP1        0.0000
      6 C12         1.4430   -0.0860    0.0500 C.3       1 DGP1        0.0000
      7 H12A        1.8730   -0.5810    0.9480 H         1 DGP1        0.0000
      8 OC2         1.7650   -0.8860   -1.0850 O.3       1 DGP1        0.0000
      9 HO2         1.5570   -0.3170   -1.8590 H         1 DGP1        0.0000
     10 C11         2.1010    1.3200   -0.0740 C.3       1 DGP1        0.0000
     11 H11A        3.1580    1.2200   -0.4200 H         1 DGP1        0.0000
     12 H11B        2.1550    1.7470    0.9530 H         1 DGP1        0.0000
     13 P           1.6080    2.2490   -2.4460 P.3       1 DGP1        0.0000
     14 O13         2.9950    2.6960   -2.6780 O.3       1 DGP1        0.0000
     15 O14         1.2130    0.9300   -2.9960 O.2       1 DGP1        0.0000
     16 O12         1.3250    2.2170   -0.8830 O.3       1 DGP1        0.0000
     17 O11         0.6110    3.3680   -2.9700 O.3       1 DGP1        0.0000
     18 C1          0.7190    3.7290   -4.3540 C.3       1 DGP1        0.0000
     19 HA          0.4160    2.8720   -5.0000 H         1 DGP1        0.0000
     20 HB          1.7660    4.0210   -4.6140 H         1 DGP1        0.0000
     21 C2         -0.1960    4.9360   -4.6970 C.3       1 DGP1        0.0000
     22 HS          0.1640    5.7930   -4.0790 H         1 DGP1        0.0000
     23 O21        -1.5570    4.5780   -4.3880 O.3       1 DGP1        0.0000
     24 C21        -2.3200    5.5690   -3.9770 C.2       1 DGP1        0.0000
     25 O22        -1.9930    6.7380   -3.8570 O.2       1 DGP1        0.0000
     26 C22        -3.7190    5.0220   -3.6950 C.3       1 DGP1        0.0000
     27 H2R        -3.6330    4.2670   -2.8860 H         1 DGP1        0.0000
     28 H2S        -4.0780    4.5170   -4.6150 H         1 DGP1        0.0000
     29 C3         -0.0670    5.3070   -6.2040 C.3       1 DGP1        0.0000
     30 HX         -0.3310    4.3930   -6.7810 H         1 DGP1        0.0000
     31 HY          0.9990    5.5380   -6.4370 H         1 DGP1        0.0000
     32 O31        -0.9710    6.3610   -6.5980 O.3       1 DGP1        0.0000
     33 C31        -0.5050    7.5960   -6.4370 C.2       1 DGP1        0.0000
     34 O32         0.6320    7.8910   -6.1190 O.2       1 DGP1        0.0000
     35 C32        -1.6320    8.5840   -6.7450 C.3       1 DGP1        0.0000
     36 H2X        -2.3560    8.5290   -5.9060 H         1 DGP1        0.0000
     37 H2Y        -2.1380    8.2510   -7.6740 H         1 DGP1        0.0000
     38 C23        -4.7070    6.1350   -3.2840 C.3       1 DGP1        0.0000
     39 H3R        -4.7180    6.9320   -4.0640 H         1 DGP1        0.0000
     40 H3S        -4.3690    6.6040   -2.3320 H         1 DGP1        0.0000
     41 C24        -6.1370    5.6080   -3.1090 C.3       1 DGP1        0.0000
     42 H4R        -6.1440    4.8160   -2.3270 H         1 DGP1        0.0000
     43 H4S        -6.4700    5.1440   -4.0650 H         1 DGP1        0.0000
     44 C25        -7.1260    6.7140   -2.7190 C.3       1 DGP1        0.0000
     45 H5R        -7.0750    7.5280   -3.4770 H         1 DGP1        0.0000
     46 H5S        -6.8250    7.1460   -1.7390 H         1 DGP1        0.0000
     47 C26        -8.5740    6.2130   -2.6300 C.3       1 DGP1        0.0000
     48 H6R        -8.6400    5.4030   -1.8690 H         1 DGP1        0.0000
     49 H6S        -8.8680    5.7800   -3.6120 H         1 DGP1        0.0000
     50 C27        -9.5570    7.3340   -2.2630 C.3       1 DGP1        0.0000
     51 H7R        -9.4490    8.1620   -3.0000 H         1 DGP1        0.0000
     52 H7S        -9.2950    7.7380   -1.2600 H         1 DGP1        0.0000
     53 C28       -11.0190    6.8670   -2.2550 C.3       1 DGP1        0.0000
     54 H8R       -11.1410    6.0460   -1.5130 H         1 DGP1        0.0000
     55 H8S       -11.2730    6.4560   -3.2590 H         1 DGP1        0.0000
     56 C29       -11.9960    8.0030   -1.9190 C.3       1 DGP1        0.0000
     57 H9R       -11.8270    8.8380   -2.6360 H         1 DGP1        0.0000
     58 H9S       -11.7670    8.3800   -0.8960 H         1 DGP1        0.0000
     59 C210      -13.4680    7.5540   -1.9870 C.3       1 DGP1        0.0000
     60 H10R      -13.5940    6.6970   -1.2880 H         1 DGP1        0.0000
     61 H10S      -13.6710    7.1690   -3.0110 H         1 DGP1        0.0000
     62 C211      -14.4080    8.6910   -1.6700 C.2       1 DGP1        0.0000
     63 H11R      -14.2390    9.6050   -2.2620 H         1 DGP1        0.0000
     64 C212      -15.3780    8.6960   -0.7370 C.2       1 DGP1        0.0000
     65 H12R      -15.9800    9.6080   -0.6020 H         1 DGP1        0.0000
     66 C213      -15.7560    7.5470    0.1650 C.3       1 DGP1        0.0000
     67 H13R      -15.5240    6.5660   -0.3070 H         1 DGP1        0.0000
     68 H13S      -16.8540    7.5530    0.3470 H         1 DGP1        0.0000
     69 C214      -15.0310    7.6110    1.5210 C.3       1 DGP1        0.0000
     70 H14R      -15.2790    8.5660    2.0360 H         1 DGP1        0.0000
     71 H14S      -13.9300    7.5920    1.3540 H         1 DGP1        0.0000
     72 C215      -15.4090    6.4400    2.4390 C.3       1 DGP1        0.0000
     73 H15R      -15.1560    5.4830    1.9300 H         1 DGP1        0.0000
     74 H15S      -16.5090    6.4520    2.6100 H         1 DGP1        0.0000
     75 C216      -14.6900    6.4920    3.7940 C.3       1 DGP1        0.0000
     76 H16R      -14.9430    7.4490    4.3030 H         1 DGP1        0.0000
     77 H16S      -13.5900    6.4800    3.6230 H         1 DGP1        0.0000
     78 C217      -15.0710    5.3200    4.7090 C.3       1 DGP1        0.0000
     79 H17R      -14.8120    4.3640    4.2020 H         1 DGP1        0.0000
     80 H17S      -16.1730    5.3300    4.8710 H         1 DGP1        0.0000
     81 C218      -14.3640    5.3760    6.0690 C.3       1 DGP1        0.0000
     82 H18R      -14.6200    6.3350    6.5740 H         1 DGP1        0.0000
     83 H18S      -13.2620    5.3630    5.9090 H         1 DGP1        0.0000
     84 C219      -14.7520    4.2090    6.9860 C.3       1 DGP1        0.0000
     85 H19R      -14.4960    3.2520    6.4750 H         1 DGP1        0.0000
     86 H19S      -15.8550    4.2220    7.1360 H         1 DGP1        0.0000
     87 C220      -14.0590    4.2520    8.3500 C.3       1 DGP1        0.0000
     88 H20R      -14.3190    5.1890    8.8890 H         1 DGP1        0.0000
     89 H20S      -12.9550    4.2140    8.2270 H         1 DGP1        0.0000
     90 H20T      -14.3720    3.3890    8.9750 H         1 DGP1        0.0000
     91 C33        -1.1310   10.0350   -6.9120 C.3       1 DGP1        0.0000
     92 H3X        -0.3780   10.0790   -7.7310 H         1 DGP1        0.0000
     93 H3Y        -0.6300   10.3710   -5.9750 H         1 DGP1        0.0000
     94 C34        -2.2790   10.9990   -7.2420 C.3       1 DGP1        0.0000
     95 H4X        -3.0090   10.9980   -6.4010 H         1 DGP1        0.0000
     96 H4Y        -2.8090   10.6320   -8.1500 H         1 DGP1        0.0000
     97 C35        -1.8040   12.4350   -7.4960 C.3       1 DGP1        0.0000
     98 H5X        -1.0700   12.4310   -8.3330 H         1 DGP1        0.0000
     99 H5Y        -1.2820   12.8180   -6.5900 H         1 DGP1        0.0000
    100 C36        -2.9620   13.3780   -7.8510 C.3       1 DGP1        0.0000
    101 H6X        -3.6750   13.4200   -6.9970 H         1 DGP1        0.0000
    102 H6Y        -3.5090   12.9610   -8.7270 H         1 DGP1        0.0000
    103 C37        -2.4930   14.7980   -8.1920 C.3       1 DGP1        0.0000
    104 H7X        -1.7750   14.7460   -9.0410 H         1 DGP1        0.0000
    105 H7Y        -1.9540   15.2300   -7.3190 H         1 DGP1        0.0000
    106 C38        -3.6560   15.7220   -8.5770 C.3       1 DGP1        0.0000
    107 H8X        -4.3500   15.8200   -7.7130 H         1 DGP1        0.0000
    108 H8Y        -4.2230   15.2580   -9.4150 H         1 DGP1        0.0000
    109 C39        -3.1870   17.1180   -9.0120 C.3       1 DGP1        0.0000
    110 H9X        -2.4820   17.0020   -9.8660 H         1 DGP1        0.0000
    111 H9Y        -2.6300   17.5910   -8.1710 H         1 DGP1        0.0000
    112 C310       -4.3610   18.0250   -9.4260 C.3       1 DGP1        0.0000
    113 H10X       -5.0400   18.1230   -8.5500 H         1 DGP1        0.0000
    114 H10Y       -4.9390   17.5070  -10.2230 H         1 DGP1        0.0000
    115 C311       -3.8790   19.3620   -9.9350 C.2       1 DGP1        0.0000
    116 H11X       -3.2000   19.2990  -10.7990 H         1 DGP1        0.0000
    117 C312       -4.1750   20.5800   -9.4410 C.2       1 DGP1        0.0000
    118 H12X       -3.7280   21.4640   -9.9230 H         1 DGP1        0.0000
    119 C313       -5.0730   20.8970   -8.2700 C.3       1 DGP1        0.0000
    120 H13X       -5.7040   20.0300   -7.9770 H         1 DGP1        0.0000
    121 H13Y       -5.7740   21.7170   -8.5430 H         1 DGP1        0.0000
    122 C314       -4.2620   21.3370   -7.0380 C.3       1 DGP1        0.0000
    123 H14X       -3.6450   22.2290   -7.2920 H         1 DGP1        0.0000
    124 H14Y       -3.5690   20.5180   -6.7380 H         1 DGP1        0.0000
    125 C315       -5.1580   21.6870   -5.8410 C.3       1 DGP1        0.0000
    126 H15X       -5.7650   20.7950   -5.5680 H         1 DGP1        0.0000
    127 H15Y       -5.8620   22.4970   -6.1370 H         1 DGP1        0.0000
    128 C316       -4.3540   22.1430   -4.6160 C.3       1 DGP1        0.0000
    129 H16X       -3.7470   23.0350   -4.8920 H         1 DGP1        0.0000
    130 H16Y       -3.6500   21.3330   -4.3200 H         1 DGP1        0.0000
    131 C317       -5.2480   22.4960   -3.4200 C.3       1 DGP1        0.0000
    132 H17X       -5.8470   21.6020   -3.1360 H         1 DGP1        0.0000
    133 H17Y       -5.9590   23.2980   -3.7200 H         1 DGP1        0.0000
    134 C318       -4.4430   22.9700   -2.2020 C.3       1 DGP1        0.0000
    135 H18X       -3.8440   23.8640   -2.4870 H         1 DGP1        0.0000
    136 H18Y       -3.7320   22.1690   -1.9000 H         1 DGP1        0.0000
    137 C319       -5.3340   23.3270   -1.0050 C.3       1 DGP1        0.0000
    138 H19X       -5.9320   22.4300   -0.7240 H         1 DGP1        0.0000
    139 H19Y       -6.0510   24.1210   -1.3160 H         1 DGP1        0.0000
    140 C320       -4.5460   23.8100    0.2150 C.3       1 DGP1        0.0000
    141 H20X       -3.9610   24.7200   -0.0360 H         1 DGP1        0.0000
    142 H20Y       -3.8400   23.0230    0.5580 H         1 DGP1        0.0000
    143 H20Z       -5.2350   24.0540    1.0530 H         1 DGP1        0.0000
@<TRIPOS>BOND
     1  116  115 1 
     2  114  112 1 
     3  115  117 2 
     4  115  112 1 
     5  118  117 1 
     6  110  109 1 
     7  117  119 1 
     8  112  109 1 
     9  112  113 1 
    10  108  106 1 
    11  104  103 1 
    12  109  106 1 
    13  109  111 1 
    14  102  100 1 
    15  106  103 1 
    16  106  107 1 
    17  121  119 1 
    18   98   97 1 
    19  119  120 1 
    20  119  122 1 
    21  103  100 1 
    22  103  105 1 
    23   96   94 1 
    24  100   97 1 
    25  100  101 1 
    26   92   91 1 
    27   37   35 1 
    28   97   94 1 
    29   97   99 1 
    30  123  122 1 
    31   94   91 1 
    32   94   95 1 
    33  122  124 1 
    34  122  125 1 
    35   91   35 1 
    36   91   93 1 
    37   30   29 1 
    38   35   33 1 
    39   35   36 1 
    40   32   33 1 
    41   32   29 1 
    42   31   29 1 
    43   33   34 2 
    44   29   21 1 
    45  127  125 1 
    46  125  126 1 
    47  125  128 1 
    48   19   18 1 
    49  129  128 1 
    50   21   23 1 
    51   21   18 1 
    52   21   22 1 
    53  128  130 1 
    54  128  131 1 
    55   28   26 1 
    56   20   18 1 
    57   23   24 1 
    58   18   17 1 
    59   43   41 1 
    60   39   38 1 
    61   24   25 2 
    62   24   26 1 
    63  133  131 1 
    64   26   38 1 
    65   26   27 1 
    66   49   47 1 
    67   45   44 1 
    68  131  132 1 
    69  131  134 1 
    70   38   41 1 
    71   38   40 1 
    72   55   53 1 
    73   41   44 1 
    74   41   42 1 
    75   61   59 1 
    76   51   50 1 
    77   15   13 2 
    78   17   13 1 
    79   44   47 1 
    80   44   46 1 
    81   14   13 1 
    82   57   56 1 
    83   47   50 1 
    84   47   48 1 
    85  135  134 1 
    86   13   16 1 
    87   50   53 1 
    88   50   52 1 
    89   63   62 1 
    90   53   56 1 
    91   53   54 1 
    92  134  136 1 
    93  134  137 1 
    94   59   56 1 
    95   59   62 1 
    96   59   60 1 
    97   56   58 1 
    98    9    8 1 
    99   62   64 2 
   100  139  137 1 
   101    8    6 1 
   102  137  138 1 
   103  137  140 1 
   104   16   10 1 
   105    2    1 1 
   106   64   65 1 
   107   64   66 1 
   108   11   10 1 
   109   67   66 1 
   110   10    6 1 
   111   10   12 1 
   112  141  140 1 
   113    6    1 1 
   114    6    7 1 
   115   66   68 1 
   116   66   69 1 
   117  140  142 1 
   118  140  143 1 
   119    1    3 1 
   120    1    4 1 
   121    5    4 1 
   122   71   69 1 
   123   69   70 1 
   124   69   72 1 
   125   73   72 1 
   126   72   74 1 
   127   72   75 1 
   128   77   75 1 
   129   75   76 1 
   130   75   78 1 
   131   79   78 1 
   132   78   80 1 
   133   78   81 1 
   134   83   81 1 
   135   81   82 1 
   136   81   84 1 
   137   85   84 1 
   138   84   86 1 
   139   84   87 1 
   140   89   87 1 
   141   87   88 1 
   142   87   90 1 
