@<TRIPOS>MOLECULE
C:\Users\Praveer\PycharmProjects\pdb_to_mol2_converter\data\pdb\dgps.pdb
  143   142     0     0     0
SMALL
GASTEIGER

@<TRIPOS>ATOM
      1 N           0.0310   -0.2700   -0.2050 N.4       1 DGP1        0.0000
      2 HN1        -0.4060    0.1260    0.6740 H         1 DGP1        0.0000
      3 HN2        -0.1730   -1.2720   -0.3670 H         1 DGP1        0.0000
      4 HN3        -0.2810    0.2770   -1.0300 H         1 DGP1        0.0000
      5 C12         1.5140   -0.1060   -0.1190 C.3       1 DGP1        0.0000
      6 H12A        1.8660   -0.6410    0.7510 H         1 DGP1        0.0000
      7 C13         2.1920   -0.7490   -1.3480 C.2       1 DGP1        0.0000
      8 O13A        1.4640   -1.3810   -2.1650 O.co2     1 DGP1        0.0000
      9 O13B        3.4460   -0.8200   -1.3380 O.co2     1 DGP1        0.0000
     10 C11         1.8910    1.4090    0.0070 C.3       1 DGP1        0.0000
     11 H11A        1.5140    1.9780   -0.8740 H         1 DGP1        0.0000
     12 H11B        3.0040    1.4700   -0.0390 H         1 DGP1        0.0000
     13 P          -0.0160    2.4910    1.4650 P.3       1 DGP1        0.0000
     14 O13        -0.4610    3.2100    0.2580 O.2       1 DGP1        0.0000
     15 O14        -0.7940    1.2730    1.8050 O.3       1 DGP1        0.0000
     16 O12         1.4710    2.0020    1.2450 O.3       1 DGP1        0.0000
     17 O11         0.0630    3.4710    2.7030 O.3       1 DGP1        0.0000
     18 C1         -1.0870    4.2910    2.9490 C.3       1 DGP1        0.0000
     19 HA         -2.0260    3.6840    2.9680 H         1 DGP1        0.0000
     20 HB         -1.1780    5.0710    2.1580 H         1 DGP1        0.0000
     21 C2         -0.9760    4.9990    4.3220 C.3       1 DGP1        0.0000
     22 HS         -0.1050    5.6940    4.2530 H         1 DGP1        0.0000
     23 O21        -0.7900    3.9920    5.3360 O.3       1 DGP1        0.0000
     24 C21        -0.0410    4.3610    6.3550 C.2       1 DGP1        0.0000
     25 O22         0.4870    5.4480    6.5110 O.2       1 DGP1        0.0000
     26 C22         0.0420    3.2010    7.3470 C.3       1 DGP1        0.0000
     27 H2R         0.5130    2.3410    6.8290 H         1 DGP1        0.0000
     28 H2S        -0.9950    2.9230    7.6260 H         1 DGP1        0.0000
     29 C3         -2.2620    5.8210    4.6190 C.3       1 DGP1        0.0000
     30 HX         -3.1100    5.1010    4.6050 H         1 DGP1        0.0000
     31 HY         -2.4440    6.5470    3.7940 H         1 DGP1        0.0000
     32 O31        -2.2290    6.4460    5.9190 O.3       1 DGP1        0.0000
     33 C31        -1.6450    7.6400    5.9540 C.2       1 DGP1        0.0000
     34 O32        -1.2710    8.2760    4.9860 O.2       1 DGP1        0.0000
     35 C32        -1.5470    8.0890    7.4120 C.3       1 DGP1        0.0000
     36 H2X        -0.7840    7.4510    7.9040 H         1 DGP1        0.0000
     37 H2Y        -2.5290    7.9050    7.8950 H         1 DGP1        0.0000
     38 C23         0.8460    3.5720    8.6120 C.3       1 DGP1        0.0000
     39 H3R         0.4120    4.4900    9.0740 H         1 DGP1        0.0000
     40 H3S         1.8990    3.8050    8.3330 H         1 DGP1        0.0000
     41 C24         0.8340    2.4490    9.6570 C.3       1 DGP1        0.0000
     42 H4R         1.2650    1.5250    9.2100 H         1 DGP1        0.0000
     43 H4S        -0.2210    2.2310    9.9380 H         1 DGP1        0.0000
     44 C25         1.6210    2.8170   10.9220 C.3       1 DGP1        0.0000
     45 H5R         1.2180    3.7710   11.3310 H         1 DGP1        0.0000
     46 H5S         2.6870    2.9900   10.6520 H         1 DGP1        0.0000
     47 C26         1.5440    1.7420   12.0150 C.3       1 DGP1        0.0000
     48 H6R         1.9540    0.7840   11.6250 H         1 DGP1        0.0000
     49 H6S         0.4760    1.5710   12.2790 H         1 DGP1        0.0000
     50 C27         2.3120    2.1480   13.2810 C.3       1 DGP1        0.0000
     51 H7R         1.9290    3.1330   13.6310 H         1 DGP1        0.0000
     52 H7S         3.3890    2.2760   13.0290 H         1 DGP1        0.0000
     53 C28         2.1740    1.1320   14.4220 C.3       1 DGP1        0.0000
     54 H8R         2.5600    0.1440   14.0860 H         1 DGP1        0.0000
     55 H8S         1.0950    1.0090   14.6660 H         1 DGP1        0.0000
     56 C29         2.9260    1.5630   15.6900 C.3       1 DGP1        0.0000
     57 H9R         2.5680    2.5750   15.9870 H         1 DGP1        0.0000
     58 H9S         4.0110    1.6410   15.4540 H         1 DGP1        0.0000
     59 C210        2.7200    0.5800   16.8580 C.3       1 DGP1        0.0000
     60 H10R        3.0460   -0.4270   16.5130 H         1 DGP1        0.0000
     61 H10S        1.6300    0.5110   17.0720 H         1 DGP1        0.0000
     62 C211        3.4600    1.0250   18.0970 C.2       1 DGP1        0.0000
     63 H11R        3.2500    2.0600   18.4100 H         1 DGP1        0.0000
     64 C212        4.3460    0.3020   18.8070 C.2       1 DGP1        0.0000
     65 H12R        4.8230    0.7630   19.6860 H         1 DGP1        0.0000
     66 C213        4.7620   -1.1230   18.5340 C.3       1 DGP1        0.0000
     67 H13R        3.9570   -1.6890   18.0130 H         1 DGP1        0.0000
     68 H13S        4.9450   -1.6550   19.4940 H         1 DGP1        0.0000
     69 C214        6.0370   -1.2010   17.6750 C.3       1 DGP1        0.0000
     70 H14R        6.8700   -0.6690   18.1860 H         1 DGP1        0.0000
     71 H14S        5.8570   -0.6920   16.7000 H         1 DGP1        0.0000
     72 C215        6.4670   -2.6490   17.4000 C.3       1 DGP1        0.0000
     73 H15R        5.6360   -3.1830   16.8880 H         1 DGP1        0.0000
     74 H15S        6.6530   -3.1630   18.3700 H         1 DGP1        0.0000
     75 C216        7.7310   -2.7370   16.5340 C.3       1 DGP1        0.0000
     76 H16R        8.5620   -2.2050   17.0470 H         1 DGP1        0.0000
     77 H16S        7.5450   -2.2210   15.5650 H         1 DGP1        0.0000
     78 C217        8.1550   -4.1860   16.2580 C.3       1 DGP1        0.0000
     79 H17R        7.3250   -4.7160   15.7390 H         1 DGP1        0.0000
     80 H17S        8.3320   -4.7030   17.2270 H         1 DGP1        0.0000
     81 C218        9.4250   -4.2810   15.4010 C.3       1 DGP1        0.0000
     82 H18R       10.2550   -3.7500   15.9190 H         1 DGP1        0.0000
     83 H18S        9.2500   -3.7670   14.4290 H         1 DGP1        0.0000
     84 C219        9.8500   -5.7310   15.1320 C.3       1 DGP1        0.0000
     85 H19R        9.0150   -6.2590   14.6160 H         1 DGP1        0.0000
     86 H19S       10.0140   -6.2420   16.1080 H         1 DGP1        0.0000
     87 C220       11.1190   -5.8460   14.2850 C.3       1 DGP1        0.0000
     88 H20R       11.9720   -5.3460   14.7930 H         1 DGP1        0.0000
     89 H20S       10.9710   -5.3640   13.2940 H         1 DGP1        0.0000
     90 H20T       11.3840   -6.9120   14.1200 H         1 DGP1        0.0000
     91 C33        -1.1610    9.5780    7.5550 C.3       1 DGP1        0.0000
     92 H3X        -1.9170   10.2100    7.0340 H         1 DGP1        0.0000
     93 H3Y        -0.1760    9.7600    7.0670 H         1 DGP1        0.0000
     94 C34        -1.0810   10.0080    9.0260 C.3       1 DGP1        0.0000
     95 H4X        -0.2880    9.4170    9.5360 H         1 DGP1        0.0000
     96 H4Y        -2.0500    9.7740    9.5230 H         1 DGP1        0.0000
     97 C35        -0.7880   11.5040    9.2020 C.3       1 DGP1        0.0000
     98 H5X        -1.5810   12.0910    8.6850 H         1 DGP1        0.0000
     99 H5Y         0.1840   11.7520    8.7190 H         1 DGP1        0.0000
    100 C36        -0.7440   11.9190   10.6790 C.3       1 DGP1        0.0000
    101 H6X         0.0800   11.3710   11.1900 H         1 DGP1        0.0000
    102 H6Y        -1.7000   11.6190   11.1650 H         1 DGP1        0.0000
    103 C37        -0.5480   13.4290   10.8730 C.3       1 DGP1        0.0000
    104 H7X        -1.3720   13.9670   10.3530 H         1 DGP1        0.0000
    105 H7Y         0.4110   13.7420   10.4040 H         1 DGP1        0.0000
    106 C38        -0.5460   13.8350   12.3530 C.3       1 DGP1        0.0000
    107 H8X         0.3080   13.3430   12.8700 H         1 DGP1        0.0000
    108 H8Y        -1.4840   13.4700   12.8290 H         1 DGP1        0.0000
    109 C39        -0.4510   15.3540   12.5520 C.3       1 DGP1        0.0000
    110 H9X        -1.3010   15.8330   12.0140 H         1 DGP1        0.0000
    111 H9Y         0.4940   15.7210   12.0910 H         1 DGP1        0.0000
    112 C310       -0.4880   15.7510   14.0390 C.3       1 DGP1        0.0000
    113 H10X        0.3650   15.2480   14.5450 H         1 DGP1        0.0000
    114 H10Y       -1.4170   15.3360   14.4910 H         1 DGP1        0.0000
    115 C311       -0.4620   17.2500   14.2150 C.2       1 DGP1        0.0000
    116 H11X       -1.2990   17.7760   13.7300 H         1 DGP1        0.0000
    117 C312        0.4630   17.9800   14.8680 C.2       1 DGP1        0.0000
    118 H12X        0.3440   19.0740   14.8940 H         1 DGP1        0.0000
    119 C313        1.6840   17.4690   15.5930 C.3       1 DGP1        0.0000
    120 H13X        1.6420   16.3720   15.7690 H         1 DGP1        0.0000
    121 H13Y        1.7510   17.9440   16.5970 H         1 DGP1        0.0000
    122 C314        2.9760   17.7810   14.8170 C.3       1 DGP1        0.0000
    123 H14X        3.0610   18.8790   14.6510 H         1 DGP1        0.0000
    124 H14Y        2.9370   17.2880   13.8190 H         1 DGP1        0.0000
    125 C315        4.2320   17.2990   15.5560 C.3       1 DGP1        0.0000
    126 H15X        4.1650   16.1980   15.7080 H         1 DGP1        0.0000
    127 H15Y        4.2700   17.7770   16.5600 H         1 DGP1        0.0000
    128 C316        5.5240   17.6260   14.7950 C.3       1 DGP1        0.0000
    129 H16X        5.5860   18.7270   14.6430 H         1 DGP1        0.0000
    130 H16Y        5.4860   17.1480   13.7910 H         1 DGP1        0.0000
    131 C317        6.7830   17.1500   15.5320 C.3       1 DGP1        0.0000
    132 H17X        6.7260   16.0470   15.6760 H         1 DGP1        0.0000
    133 H17Y        6.8140   17.6210   16.5400 H         1 DGP1        0.0000
    134 C318        8.0750   17.4930   14.7780 C.3       1 DGP1        0.0000
    135 H18X        8.1310   18.5960   14.6360 H         1 DGP1        0.0000
    136 H18Y        8.0450   17.0230   13.7700 H         1 DGP1        0.0000
    137 C319        9.3350   17.0200   15.5150 C.3       1 DGP1        0.0000
    138 H19X        9.2740   15.9170   15.6570 H         1 DGP1        0.0000
    139 H19Y        9.3540   17.4850   16.5270 H         1 DGP1        0.0000
    140 C320       10.6330   17.3620   14.7790 C.3       1 DGP1        0.0000
    141 H20X       10.7270   18.4620   14.6490 H         1 DGP1        0.0000
    142 H20Y       10.6460   16.8890   13.7740 H         1 DGP1        0.0000
    143 H20Z       11.5140   16.9990   15.3500 H         1 DGP1        0.0000
@<TRIPOS>BOND
     1    8    7 ar
     2    7    9 ar
     3    7    5 1 
     4    4    1 1 
     5   11   10 1 
     6    3    1 1 
     7    1    5 1 
     8    1    2 1 
     9    5   10 1 
    10    5    6 1 
    11   12   10 1 
    12   10   16 1 
    13   14   13 2 
    14   16   13 1 
    15   13   15 1 
    16   13   17 1 
    17   20   18 1 
    18   17   18 1 
    19   18   19 1 
    20   18   21 1 
    21   31   29 1 
    22   22   21 1 
    23   21   29 1 
    24   21   23 1 
    25   30   29 1 
    26   29   32 1 
    27   34   33 2 
    28   23   24 1 
    29   32   33 1 
    30   33   35 1 
    31   24   25 2 
    32   24   26 1 
    33   27   26 1 
    34   92   91 1 
    35   93   91 1 
    36   26   28 1 
    37   26   38 1 
    38   35   91 1 
    39   35   37 1 
    40   35   36 1 
    41   91   94 1 
    42   40   38 1 
    43   38   39 1 
    44   38   41 1 
    45   98   97 1 
    46   99   97 1 
    47   94   97 1 
    48   94   96 1 
    49   94   95 1 
    50   97  100 1 
    51   42   41 1 
    52   41   43 1 
    53   41   44 1 
    54  104  103 1 
    55  105  103 1 
    56   46   44 1 
    57  100  103 1 
    58  100  102 1 
    59  100  101 1 
    60  103  106 1 
    61   44   45 1 
    62   44   47 1 
    63   48   47 1 
    64  110  109 1 
    65   47   49 1 
    66   47   50 1 
    67  111  109 1 
    68  106  109 1 
    69  106  108 1 
    70  106  107 1 
    71  109  112 1 
    72   52   50 1 
    73   50   51 1 
    74   50   53 1 
    75   89   87 1 
    76  116  115 1 
    77  136  134 1 
    78  142  140 1 
    79  130  128 1 
    80  124  122 1 
    81  112  115 1 
    82  112  114 1 
    83  112  113 1 
    84   54   53 1 
    85   90   87 1 
    86  115  117 2 
    87   87   88 1 
    88   87   84 1 
    89   53   55 1 
    90   53   56 1 
    91   83   81 1 
    92   85   84 1 
    93  135  134 1 
    94  129  128 1 
    95  141  140 1 
    96  123  122 1 
    97  134  137 1 
    98  134  131 1 
    99  140  143 1 
   100  140  137 1 
   101  128  131 1 
   102  128  125 1 
   103  122  125 1 
   104  122  119 1 
   105  117  118 1 
   106  117  119 1 
   107   84   81 1 
   108   84   86 1 
   109   81   82 1 
   110   81   78 1 
   111   58   56 1 
   112  137  138 1 
   113  137  139 1 
   114  131  132 1 
   115  131  133 1 
   116  125  126 1 
   117  125  127 1 
   118   77   75 1 
   119  119  120 1 
   120  119  121 1 
   121   56   57 1 
   122   56   59 1 
   123   79   78 1 
   124   78   75 1 
   125   78   80 1 
   126   60   59 1 
   127   75   76 1 
   128   75   72 1 
   129   71   69 1 
   130   59   61 1 
   131   59   62 1 
   132   73   72 1 
   133   72   69 1 
   134   72   74 1 
   135   69   70 1 
   136   69   66 1 
   137   67   66 1 
   138   62   63 1 
   139   62   64 2 
   140   66   64 1 
   141   66   68 1 
   142   64   65 1 
