@<TRIPOS>MOLECULE
C:\Users\Praveer\PycharmProjects\pdb_to_mol2_converter\data\pdb\dgulol.pdb
   26    25     0     0     0
SMALL
GASTEIGER

@<TRIPOS>ATOM
      1 C1          0.0840   -0.0790    0.1170 C.3       1 DGU1        0.0000
      2 H11        -0.4820    0.6900    0.7020 H         1 DGU1        0.0000
      3 H12        -0.1730    0.0440   -0.9640 H         1 DGU1        0.0000
      4 O1         -0.3130   -1.3900    0.5590 O.3       1 DGU1        0.0000
      5 HO1        -0.1410   -2.0060   -0.1920 H         1 DGU1        0.0000
      6 C2          1.5770    0.1340    0.3390 C.3       1 DGU1        0.0000
      7 H2          2.1440   -0.6400   -0.2290 H         1 DGU1        0.0000
      8 O2          1.8420   -0.0310    1.7430 O.3       1 DGU1        0.0000
      9 HO2         1.1700   -0.6820    2.0030 H         1 DGU1        0.0000
     10 C3          2.0700    1.5180   -0.0560 C.3       1 DGU1        0.0000
     11 H3          1.7450    2.2590    0.7160 H         1 DGU1        0.0000
     12 O3          1.4820    1.9140   -1.3130 O.3       1 DGU1        0.0000
     13 HO3         1.9440    2.7400   -1.5240 H         1 DGU1        0.0000
     14 C4          3.5980    1.5160   -0.1430 C.3       1 DGU1        0.0000
     15 H4          3.9980    0.9580    0.7410 H         1 DGU1        0.0000
     16 O4          4.0580    0.8350   -1.3230 O.3       1 DGU1        0.0000
     17 HO4         3.4070    1.0780   -1.9910 H         1 DGU1        0.0000
     18 C5          4.1640    2.9260   -0.0820 C.3       1 DGU1        0.0000
     19 H5          3.8620    3.3600    0.9040 H         1 DGU1        0.0000
     20 O5          3.6390    3.7660   -1.1250 O.3       1 DGU1        0.0000
     21 HO5         4.2970    4.4780   -1.1770 H         1 DGU1        0.0000
     22 C6          5.6760    2.9050   -0.1640 C.3       1 DGU1        0.0000
     23 H61         6.0210    2.6710   -1.1970 H         1 DGU1        0.0000
     24 H62         6.0710    2.1160    0.5160 H         1 DGU1        0.0000
     25 O6          6.1980    4.1700    0.2660 O.3       1 DGU1        0.0000
     26 HO6         7.1240    4.0410    0.5050 H         1 DGU1        0.0000
@<TRIPOS>BOND
     1   17   16 1 
     2   13   12 1 
     3   16   14 1 
     4   12   10 1 
     5   23   22 1 
     6   21   20 1 
     7   20   18 1 
     8    3    1 1 
     9    7    6 1 
    10    5    4 1 
    11   22   18 1 
    12   22   25 1 
    13   22   24 1 
    14   14   18 1 
    15   14   10 1 
    16   14   15 1 
    17   18   19 1 
    18   10    6 1 
    19   10   11 1 
    20    1    6 1 
    21    1    4 1 
    22    1    2 1 
    23   25   26 1 
    24    6    8 1 
    25    8    9 1 
