@<TRIPOS>MOLECULE
C:\Users\Praveer\PycharmProjects\pdb_to_mol2_converter\data\pdb\dh3t.pdb
   15    15     0     0     0
SMALL
GASTEIGER

@<TRIPOS>ATOM
      1 S1          0.1140   -0.3200    0.1020 S.3       1 DH31        0.0000
      2 C2          1.9000   -0.1860    0.0370 C.2       1 DH31        0.0000
      3 N3          2.4200   -1.1740   -0.7760 N.pl3     1 DH31        0.0000
      4 H31         3.3870   -1.3690   -0.5690 H         1 DH31        0.0000
      5 H32         1.8710   -2.0160   -0.8290 H         1 DH31        0.0000
      6 N4          2.6870    0.6430    0.6320 N.2       1 DH31        0.0000
      7 C5          2.1860    1.6790    1.5270 C.3       1 DH31        0.0000
      8 H51         2.2060    2.6380    0.9610 H         1 DH31        0.0000
      9 H52         2.9130    1.7660    2.3650 H         1 DH31        0.0000
     10 C6          0.7850    1.4300    2.0960 C.3       1 DH31        0.0000
     11 H61         0.4870    2.3040    2.7160 H         1 DH31        0.0000
     12 H62         0.8170    0.5380    2.7630 H         1 DH31        0.0000
     13 C7         -0.2330    1.2150    0.9840 C.3       1 DH31        0.0000
     14 H71        -1.2600    1.1850    1.4110 H         1 DH31        0.0000
     15 H72        -0.1890    2.0770    0.2810 H         1 DH31        0.0000
@<TRIPOS>BOND
     1    5    3 1 
     2    3    4 1 
     3    3    2 1 
     4    2    1 1 
     5    2    6 2 
     6    1   13 1 
     7   15   13 1 
     8    6    7 1 
     9    8    7 1 
    10   13   14 1 
    11   13   10 1 
    12    7   10 1 
    13    7    9 1 
    14   10   11 1 
    15   10   12 1 
