@<TRIPOS>MOLECULE
C:\Users\Praveer\PycharmProjects\pdb_to_mol2_converter\data\pdb\dha.pdb
   55    54     0     0     0
SMALL
GASTEIGER

@<TRIPOS>ATOM
      1 O1          0.0720    0.0540   -0.0770 O.co2     1 DHA1        0.0000
      2 O2          2.0430   -0.9720   -0.0060 O.co2     1 DHA1        0.0000
      3 C1          1.3280    0.0650   -0.0490 C.2       1 DHA1        0.0000
      4 C2          2.0660    1.4050   -0.0750 C.3       1 DHA1        0.0000
      5 H2R         2.7150    1.3950   -0.9740 H         1 DHA1        0.0000
      6 H2S         2.7090    1.4360    0.8290 H         1 DHA1        0.0000
      7 C3          1.1150    2.6300   -0.0980 C.3       1 DHA1        0.0000
      8 H3R         0.4530    2.5640    0.7940 H         1 DHA1        0.0000
      9 H3S         0.4490    2.5410   -0.9850 H         1 DHA1        0.0000
     10 C4          1.8940    3.9210   -0.1600 C.2       1 DHA1        0.0000
     11 H4R         2.5140    4.0180   -1.0630 H         1 DHA1        0.0000
     12 C5          1.9190    4.9150    0.7510 C.2       1 DHA1        0.0000
     13 H5R         2.5650    5.7830    0.5490 H         1 DHA1        0.0000
     14 C6          1.1630    4.9770    2.0590 C.3       1 DHA1        0.0000
     15 H6R         1.8900    4.8330    2.8890 H         1 DHA1        0.0000
     16 H6S         0.4420    4.1340    2.1460 H         1 DHA1        0.0000
     17 C7          0.4490    6.2930    2.2620 C.2       1 DHA1        0.0000
     18 H7R         0.8410    7.1450    1.6840 H         1 DHA1        0.0000
     19 C8         -0.6150    6.4960    3.0630 C.2       1 DHA1        0.0000
     20 H8R        -1.0570    7.5040    3.1050 H         1 DHA1        0.0000
     21 C9         -1.2910    5.4580    3.9300 C.3       1 DHA1        0.0000
     22 H9R        -0.6300    4.5740    4.0780 H         1 DHA1        0.0000
     23 H9S        -2.1860    5.0750    3.3900 H         1 DHA1        0.0000
     24 C10        -1.6760    6.0020    5.2860 C.2       1 DHA1        0.0000
     25 H10R       -1.0060    6.7730    5.6990 H         1 DHA1        0.0000
     26 C11        -2.7450    5.6220    6.0110 C.2       1 DHA1        0.0000
     27 H11R       -2.9110    6.0980    6.9910 H         1 DHA1        0.0000
     28 C12        -3.7410    4.5620    5.6020 C.3       1 DHA1        0.0000
     29 H12R       -3.1950    3.6710    5.2170 H         1 DHA1        0.0000
     30 H12S       -4.3410    4.9420    4.7460 H         1 DHA1        0.0000
     31 C13        -4.6880    4.1840    6.7190 C.2       1 DHA1        0.0000
     32 H13R       -5.1470    5.0340    7.2490 H         1 DHA1        0.0000
     33 C14        -5.0160    2.9370    7.1090 C.2       1 DHA1        0.0000
     34 H14R       -5.7110    2.8240    7.9560 H         1 DHA1        0.0000
     35 C15        -4.5090    1.6490    6.5000 C.3       1 DHA1        0.0000
     36 H15R       -3.5310    1.4010    6.9680 H         1 DHA1        0.0000
     37 H15S       -4.2990    1.7870    5.4150 H         1 DHA1        0.0000
     38 C16        -5.4430    0.4770    6.6880 C.2       1 DHA1        0.0000
     39 H16R       -6.2510    0.6030    7.4260 H         1 DHA1        0.0000
     40 C17        -5.3580   -0.6840    6.0130 C.2       1 DHA1        0.0000
     41 H17R       -6.1000   -1.4720    6.2150 H         1 DHA1        0.0000
     42 C18        -4.3030   -1.0030    4.9790 C.3       1 DHA1        0.0000
     43 H18R       -3.3210   -0.5950    5.3080 H         1 DHA1        0.0000
     44 H18S       -4.5600   -0.4670    4.0390 H         1 DHA1        0.0000
     45 C19        -4.1440   -2.4750    4.6730 C.2       1 DHA1        0.0000
     46 H19R       -4.7970   -3.1390    5.2600 H         1 DHA1        0.0000
     47 C20        -3.3190   -3.0580    3.7760 C.2       1 DHA1        0.0000
     48 H20R       -3.3640   -4.1550    3.7000 H         1 DHA1        0.0000
     49 C21        -2.3010   -2.4630    2.8240 C.3       1 DHA1        0.0000
     50 H21R       -2.6400   -2.6440    1.7780 H         1 DHA1        0.0000
     51 H21S       -1.3480   -3.0340    2.9310 H         1 DHA1        0.0000
     52 C22        -1.9260   -0.9730    2.9220 C.3       1 DHA1        0.0000
     53 H22R       -1.5170   -0.7290    3.9240 H         1 DHA1        0.0000
     54 H22S       -2.8030   -0.3250    2.7160 H         1 DHA1        0.0000
     55 H22T       -1.1460   -0.7310    2.1640 H         1 DHA1        0.0000
@<TRIPOS>BOND
     1   11   10 1 
     2    9    7 1 
     3    5    4 1 
     4   10    7 1 
     5   10   12 2 
     6    7    4 1 
     7    7    8 1 
     8    1    3 ar
     9    4    3 1 
    10    4    6 1 
    11    3    2 ar
    12   13   12 1 
    13   12   14 1 
    14   18   17 1 
    15   50   49 1 
    16   14   16 1 
    17   14   17 1 
    18   14   15 1 
    19   55   52 1 
    20   17   19 2 
    21   54   52 1 
    22   49   52 1 
    23   49   51 1 
    24   49   47 1 
    25   52   53 1 
    26   19   20 1 
    27   19   21 1 
    28   23   21 1 
    29   48   47 1 
    30   47   45 2 
    31   21   22 1 
    32   21   24 1 
    33   44   42 1 
    34   45   42 1 
    35   45   46 1 
    36   30   28 1 
    37   42   43 1 
    38   42   40 1 
    39   29   28 1 
    40   24   25 1 
    41   24   26 2 
    42   37   35 1 
    43   28   26 1 
    44   28   31 1 
    45   26   27 1 
    46   40   41 1 
    47   40   38 2 
    48   35   38 1 
    49   35   36 1 
    50   35   33 1 
    51   38   39 1 
    52   31   33 2 
    53   31   32 1 
    54   33   34 1 
