@<TRIPOS>MOLECULE
C:\Users\Praveer\PycharmProjects\pdb_to_mol2_converter\data\pdb\dhap.pdb
   56    55     0     0     0
SMALL
GASTEIGER

@<TRIPOS>ATOM
      1 H1          0.0310   -0.1350   -0.0420 H         1 DHA1        0.0000
      2 O1          0.9860   -0.1160   -0.0150 O.3       1 DHA1        0.0000
      3 O2          0.5150    2.0720   -0.1600 O.2       1 DHA1        0.0000
      4 C1          1.3680    1.2070   -0.0840 C.2       1 DHA1        0.0000
      5 C2          2.8820    1.4520   -0.0580 C.3       1 DHA1        0.0000
      6 H2R         3.0680    2.2130    0.7290 H         1 DHA1        0.0000
      7 H2S         3.1550    1.8980   -1.0380 H         1 DHA1        0.0000
      8 C3          3.7430    0.1870    0.2030 C.3       1 DHA1        0.0000
      9 H3R         3.5210   -0.5700   -0.5810 H         1 DHA1        0.0000
     10 H3S         3.4390   -0.2670    1.1730 H         1 DHA1        0.0000
     11 C4          5.2120    0.5360    0.2490 C.2       1 DHA1        0.0000
     12 H4R         5.5040    1.1630    1.1060 H         1 DHA1        0.0000
     13 C5          6.1660    0.1650   -0.6270 C.2       1 DHA1        0.0000
     14 H5R         7.1980    0.5080   -0.4520 H         1 DHA1        0.0000
     15 C6          5.9930   -0.6770   -1.8700 C.3       1 DHA1        0.0000
     16 H6R         6.4640   -0.1440   -2.7250 H         1 DHA1        0.0000
     17 H6S         4.9190   -0.7720   -2.1420 H         1 DHA1        0.0000
     18 C7          6.6230   -2.0440   -1.7410 C.2       1 DHA1        0.0000
     19 H7R         7.4090   -2.1420   -0.9740 H         1 DHA1        0.0000
     20 C8          6.3030   -3.1310   -2.4690 C.2       1 DHA1        0.0000
     21 H8R         6.8340   -4.0760   -2.2670 H         1 DHA1        0.0000
     22 C9          5.2620   -3.2030   -3.5610 C.3       1 DHA1        0.0000
     23 H9R         4.9360   -2.1870   -3.8710 H         1 DHA1        0.0000
     24 H9S         4.3550   -3.6990   -3.1520 H         1 DHA1        0.0000
     25 C10         5.7780   -3.9320   -4.7800 C.2       1 DHA1        0.0000
     26 H10R        6.7930   -3.6480   -5.1000 H         1 DHA1        0.0000
     27 C11         5.1200   -4.8710   -5.4870 C.2       1 DHA1        0.0000
     28 H11R        5.6260   -5.3220   -6.3550 H         1 DHA1        0.0000
     29 C12         3.7210   -5.3680   -5.2050 C.3       1 DHA1        0.0000
     30 H12R        3.0950   -4.5340   -4.8160 H         1 DHA1        0.0000
     31 H12S        3.7720   -6.1160   -4.3840 H         1 DHA1        0.0000
     32 C13         3.0660   -6.0180   -6.4030 C.2       1 DHA1        0.0000
     33 H13R        3.7240   -6.6460   -7.0230 H         1 DHA1        0.0000
     34 C14         1.7730   -5.8910   -6.7590 C.2       1 DHA1        0.0000
     35 H14R        1.4220   -6.4090   -7.6660 H         1 DHA1        0.0000
     36 C15         0.7390   -5.0850   -6.0090 C.3       1 DHA1        0.0000
     37 H15R        0.8960   -4.0080   -6.2420 H         1 DHA1        0.0000
     38 H15S        0.9070   -5.1860   -4.9130 H         1 DHA1        0.0000
     39 C16        -0.6920   -5.4590   -6.3140 C.2       1 DHA1        0.0000
     40 H16R       -0.8510   -6.3620   -6.9250 H         1 DHA1        0.0000
     41 C17        -1.7600   -4.7660   -5.8800 C.2       1 DHA1        0.0000
     42 H17R       -2.7700   -5.1150   -6.1510 H         1 DHA1        0.0000
     43 C18        -1.6720   -3.5240   -5.0240 C.3       1 DHA1        0.0000
     44 H18R       -1.0920   -2.7500   -5.5750 H         1 DHA1        0.0000
     45 H18S       -1.0840   -3.7650   -4.1110 H         1 DHA1        0.0000
     46 C19        -3.0030   -2.9360   -4.6140 C.2       1 DHA1        0.0000
     47 H19R       -3.8800   -3.4510   -5.0370 H         1 DHA1        0.0000
     48 C20        -3.2440   -1.8810   -3.8060 C.2       1 DHA1        0.0000
     49 H20R       -4.3020   -1.6210   -3.6390 H         1 DHA1        0.0000
     50 C21        -2.3070   -0.9490   -3.0640 C.3       1 DHA1        0.0000
     51 H21R       -2.5380   -1.0200   -1.9760 H         1 DHA1        0.0000
     52 H21S       -2.5590    0.0960   -3.3580 H         1 DHA1        0.0000
     53 C22        -0.7820   -1.0980   -3.2170 C.3       1 DHA1        0.0000
     54 H22R       -0.4800   -0.9840   -4.2800 H         1 DHA1        0.0000
     55 H22S       -0.4410   -2.0890   -2.8510 H         1 DHA1        0.0000
     56 H22T       -0.2580   -0.3160   -2.6270 H         1 DHA1        0.0000
@<TRIPOS>BOND
     1   35   34 1 
     2   33   32 1 
     3   40   39 1 
     4   34   32 2 
     5   34   36 1 
     6   32   29 1 
     7   28   27 1 
     8   39   36 1 
     9   39   41 2 
    10   37   36 1 
    11   42   41 1 
    12   36   38 1 
    13   41   43 1 
    14   44   43 1 
    15   27   29 1 
    16   27   25 2 
    17   29   30 1 
    18   29   31 1 
    19   26   25 1 
    20   47   46 1 
    21   43   46 1 
    22   43   45 1 
    23   25   22 1 
    24   46   48 2 
    25   54   53 1 
    26   23   22 1 
    27   48   49 1 
    28   48   50 1 
    29   22   24 1 
    30   22   20 1 
    31   52   50 1 
    32   53   50 1 
    33   53   55 1 
    34   53   56 1 
    35   50   51 1 
    36   16   15 1 
    37   20   21 1 
    38   20   18 2 
    39   17   15 1 
    40   15   18 1 
    41   15   13 1 
    42   18   19 1 
    43    7    5 1 
    44   13   14 1 
    45   13   11 2 
    46    9    8 1 
    47    3    4 2 
    48    4    5 1 
    49    4    2 1 
    50    5    8 1 
    51    5    6 1 
    52    1    2 1 
    53    8   11 1 
    54    8   10 1 
    55   11   12 1 
