@<TRIPOS>MOLECULE
C:\Users\Praveer\PycharmProjects\pdb_to_mol2_converter\data\pdb\dhpc.pdb
   76    75     0     0     0
SMALL
GASTEIGER

@<TRIPOS>ATOM
      1 N           1.4830    0.0020   -0.0010 N.4       1 DHP1        0.0000
      2 C13        -0.0140    0.0070   -0.0020 C.3       1 DHP1        0.0000
      3 H13A       -0.3740    0.5320    0.8770 H         1 DHP1        0.0000
      4 H13B       -0.4060   -1.0010    0.0260 H         1 DHP1        0.0000
      5 H13C       -0.4020    0.5140   -0.8740 H         1 DHP1        0.0000
      6 C14         1.9810   -0.6980    1.2330 C.3       1 DHP1        0.0000
      7 H14A        1.6390   -1.7130    1.3170 H         1 DHP1        0.0000
      8 H14B        1.7030   -0.1450    2.1350 H         1 DHP1        0.0000
      9 H14C        3.0730   -0.6740    1.2660 H         1 DHP1        0.0000
     10 C15         2.0070   -0.7290   -1.1990 C.3       1 DHP1        0.0000
     11 H15A        1.6900   -0.2580   -2.1190 H         1 DHP1        0.0000
     12 H15B        1.6680   -1.7570   -1.2020 H         1 DHP1        0.0000
     13 H15C        3.0940   -0.7400   -1.1790 H         1 DHP1        0.0000
     14 C12         2.0220    1.4250    0.0130 C.3       1 DHP1        0.0000
     15 H12A        1.8290    1.9320   -0.9200 H         1 DHP1        0.0000
     16 H12B        3.1130    1.3750    0.1100 H         1 DHP1        0.0000
     17 C11         1.5680    2.3300    1.1760 C.3       1 DHP1        0.0000
     18 H11A        0.9490    1.7950    1.9320 H         1 DHP1        0.0000
     19 H11B        0.9350    3.1510    0.7710 H         1 DHP1        0.0000
     20 P           3.7080    1.9360    2.5720 P.3       1 DHP1        0.0000
     21 O13         2.9030    1.1080    3.4980 O.3       1 DHP1        0.0000
     22 O14         4.4880    1.1910    1.5560 O.2       1 DHP1        0.0000
     23 O11         4.6440    2.9220    3.3790 O.3       1 DHP1        0.0000
     24 O12         2.7220    2.9000    1.7840 O.3       1 DHP1        0.0000
     25 C1          5.6450    2.3520    4.2280 C.3       1 DHP1        0.0000
     26 HA          6.2240    1.5550    3.7010 H         1 DHP1        0.0000
     27 HB          5.1690    1.9110    5.1340 H         1 DHP1        0.0000
     28 C2          6.6640    3.4300    4.6800 C.3       1 DHP1        0.0000
     29 HS          6.0820    4.2240    5.2080 H         1 DHP1        0.0000
     30 O21         7.3320    3.9340    3.5070 O.3       1 DHP1        0.0000
     31 C21         7.7040    5.1960    3.5700 C.2       1 DHP1        0.0000
     32 O22         7.5300    5.9580    4.5050 O.2       1 DHP1        0.0000
     33 C22         8.4290    5.5580    2.2740 C.3       1 DHP1        0.0000
     34 H2R         7.6930    5.4990    1.4460 H         1 DHP1        0.0000
     35 H2S         9.2190    4.7990    2.1010 H         1 DHP1        0.0000
     36 C3          7.7030    2.8210    5.6680 C.3       1 DHP1        0.0000
     37 HX          8.1740    1.9620    5.1420 H         1 DHP1        0.0000
     38 HY          7.1720    2.4040    6.5550 H         1 DHP1        0.0000
     39 O31         8.7450    3.7530    6.0280 O.3       1 DHP1        0.0000
     40 C31         8.4680    4.5400    7.0640 C.2       1 DHP1        0.0000
     41 O32         7.4940    4.4440    7.7880 O.2       1 DHP1        0.0000
     42 C32         9.5920    5.5670    7.2070 C.3       1 DHP1        0.0000
     43 H2X         9.5290    6.2500    6.3340 H         1 DHP1        0.0000
     44 H2Y        10.5600    5.0270    7.1660 H         1 DHP1        0.0000
     45 C23         9.0550    6.9690    2.3360 C.3       1 DHP1        0.0000
     46 H3R         9.7540    7.0290    3.2010 H         1 DHP1        0.0000
     47 H3S         8.2550    7.7270    2.4980 H         1 DHP1        0.0000
     48 C24         9.8260    7.3230    1.0580 C.3       1 DHP1        0.0000
     49 H4R         9.1300    7.2950    0.1900 H         1 DHP1        0.0000
     50 H4S        10.6150    6.5560    0.8840 H         1 DHP1        0.0000
     51 C25        10.4840    8.7080    1.1350 C.3       1 DHP1        0.0000
     52 H5R        11.1770    8.7340    2.0050 H         1 DHP1        0.0000
     53 H5S         9.6960    9.4760    1.3070 H         1 DHP1        0.0000
     54 C26        11.2640    9.0650   -0.1370 C.3       1 DHP1        0.0000
     55 H6R        10.5680    9.0310   -1.0060 H         1 DHP1        0.0000
     56 H6S        12.0470    8.2900   -0.3060 H         1 DHP1        0.0000
     57 C27        11.9260   10.4440   -0.0750 C.3       1 DHP1        0.0000
     58 H7R        12.6420   10.4940    0.7720 H         1 DHP1        0.0000
     59 H7S        11.1590   11.2370    0.0670 H         1 DHP1        0.0000
     60 H7T        12.4780   10.6550   -1.0160 H         1 DHP1        0.0000
     61 C33         9.4970    6.3820    8.5150 C.3       1 DHP1        0.0000
     62 H3X         9.5220    5.6940    9.3900 H         1 DHP1        0.0000
     63 H3Y         8.5270    6.9300    8.5440 H         1 DHP1        0.0000
     64 C34        10.6460    7.3920    8.6420 C.3       1 DHP1        0.0000
     65 H4X        10.6120    8.0920    7.7770 H         1 DHP1        0.0000
     66 H4Y        11.6160    6.8470    8.5980 H         1 DHP1        0.0000
     67 C35        10.5880    8.2000    9.9450 C.3       1 DHP1        0.0000
     68 H5X        10.6300    7.5000   10.8100 H         1 DHP1        0.0000
     69 H5Y         9.6170    8.7420    9.9970 H         1 DHP1        0.0000
     70 C36        11.7350    9.2120   10.0630 C.3       1 DHP1        0.0000
     71 H6X        11.6740    9.9230    9.2070 H         1 DHP1        0.0000
     72 H6Y        12.7030    8.6680    9.9760 H         1 DHP1        0.0000
     73 C37        11.7190   10.0000   11.3750 C.3       1 DHP1        0.0000
     74 H7X        11.8070    9.3110   12.2430 H         1 DHP1        0.0000
     75 H7Y        10.7700   10.5700   11.4750 H         1 DHP1        0.0000
     76 H7Z        12.5660   10.7180   11.4100 H         1 DHP1        0.0000
@<TRIPOS>BOND
     1   11   10 1 
     2   12   10 1 
     3   10   13 1 
     4   10    1 1 
     5   60   57 1 
     6   55   54 1 
     7   15   14 1 
     8    5    2 1 
     9   56   54 1 
    10   54   57 1 
    11   54   51 1 
    12   57   59 1 
    13   57   58 1 
    14    2    1 1 
    15    2    4 1 
    16    2    3 1 
    17    1   14 1 
    18    1    6 1 
    19   14   16 1 
    20   14   17 1 
    21   49   48 1 
    22   19   17 1 
    23   50   48 1 
    24   48   51 1 
    25   48   45 1 
    26   51   53 1 
    27   51   52 1 
    28   17   24 1 
    29   17   18 1 
    30    6    9 1 
    31    6    7 1 
    32    6    8 1 
    33   34   33 1 
    34   22   20 2 
    35   24   20 1 
    36   35   33 1 
    37   33   45 1 
    38   33   31 1 
    39   45   47 1 
    40   45   46 1 
    41   20   23 1 
    42   20   21 1 
    43   23   25 1 
    44   30   31 1 
    45   30   28 1 
    46   31   32 2 
    47   26   25 1 
    48   25   28 1 
    49   25   27 1 
    50   28   29 1 
    51   28   36 1 
    52   37   36 1 
    53   36   39 1 
    54   36   38 1 
    55   39   40 1 
    56   43   42 1 
    57   40   42 1 
    58   40   41 2 
    59   44   42 1 
    60   42   61 1 
    61   65   64 1 
    62   61   63 1 
    63   61   64 1 
    64   61   62 1 
    65   66   64 1 
    66   64   67 1 
    67   71   70 1 
    68   67   69 1 
    69   67   70 1 
    70   67   68 1 
    71   72   70 1 
    72   70   73 1 
    73   73   76 1 
    74   73   75 1 
    75   73   74 1 
