@<TRIPOS>MOLECULE
C:\Users\Praveer\PycharmProjects\pdb_to_mol2_converter\data\pdb\didiol.pdb
   26    25     0     0     0
SMALL
GASTEIGER

@<TRIPOS>ATOM
      1 C1          0.0200   -0.0060   -0.0680 C.3       1 DID1        0.0000
      2 H11        -0.3510    0.7890    0.6180 H         1 DID1        0.0000
      3 H12        -0.3910    0.1980   -1.0840 H         1 DID1        0.0000
      4 O1         -0.4390   -1.2770    0.4110 O.3       1 DID1        0.0000
      5 HO1        -1.4020   -1.2420    0.4570 H         1 DID1        0.0000
      6 C2          1.5350    0.0120   -0.0900 C.3       1 DID1        0.0000
      7 H2          1.9140   -0.4210    0.8670 H         1 DID1        0.0000
      8 O2          1.9830   -0.8370   -1.1580 O.3       1 DID1        0.0000
      9 HO2         1.3060   -1.5270   -1.1880 H         1 DID1        0.0000
     10 C3          2.0620    1.4450   -0.1810 C.3       1 DID1        0.0000
     11 H3          1.7000    1.9970    0.7180 H         1 DID1        0.0000
     12 O3          1.5100    2.1000   -1.3310 O.3       1 DID1        0.0000
     13 HO3         2.2180    2.7140   -1.6060 H         1 DID1        0.0000
     14 C4          3.5940    1.5210   -0.1760 C.3       1 DID1        0.0000
     15 H4          3.9500    0.9560    0.7170 H         1 DID1        0.0000
     16 O4          4.1510    0.8780   -1.3320 O.3       1 DID1        0.0000
     17 HO4         3.4380    0.2810   -1.6280 H         1 DID1        0.0000
     18 C5          4.1270    2.9500   -0.0630 C.3       1 DID1        0.0000
     19 H5          3.7610    3.3660    0.9070 H         1 DID1        0.0000
     20 O5          3.6720    3.8180   -1.1110 O.3       1 DID1        0.0000
     21 HO5         4.3640    4.4910   -1.1560 H         1 DID1        0.0000
     22 C6          5.6420    2.9580   -0.0590 C.3       1 DID1        0.0000
     23 H61         6.0400    2.7670   -1.0830 H         1 DID1        0.0000
     24 H62         6.0160    2.1490    0.6090 H         1 DID1        0.0000
     25 O6          6.1180    4.2170    0.4340 O.3       1 DID1        0.0000
     26 HO6         7.0780    4.1580    0.5100 H         1 DID1        0.0000
@<TRIPOS>BOND
     1   17   16 1 
     2   13   12 1 
     3   16   14 1 
     4   12   10 1 
     5    9    8 1 
     6    8    6 1 
     7   21   20 1 
     8   20   18 1 
     9    3    1 1 
    10   23   22 1 
    11   10   14 1 
    12   10    6 1 
    13   10   11 1 
    14   14   18 1 
    15   14   15 1 
    16    6    1 1 
    17    6    7 1 
    18    1    4 1 
    19    1    2 1 
    20   18   22 1 
    21   18   19 1 
    22   22   25 1 
    23   22   24 1 
    24    4    5 1 
    25   25   26 1 
