@<TRIPOS>MOLECULE
C:\Users\Praveer\PycharmProjects\pdb_to_mol2_converter\data\pdb\dihe.pdb
   19    18     0     0     0
SMALL
GASTEIGER

@<TRIPOS>ATOM
      1 C1          0.9930    0.0420    0.0020 C.3       1 DIH1        0.0000
      2 H11         0.3490   -0.0930   -0.8950 H         1 DIH1        0.0000
      3 H12         0.3500   -0.0920    0.8990 H         1 DIH1        0.0000
      4 H13         1.7350   -0.7860    0.0020 H         1 DIH1        0.0000
      5 C2          1.6330    1.4090   -0.0000 C.2       1 DIH1        0.0000
      6 H21         0.9340    2.2610   -0.0020 H         1 DIH1        0.0000
      7 C3          2.9560    1.6570   -0.0010 C.2       1 DIH1        0.0000
      8 H31         3.2940    2.7060   -0.0040 H         1 DIH1        0.0000
      9 C4          4.0400    0.6040    0.0000 C.3       1 DIH1        0.0000
     10 H41         3.9070   -0.0540   -0.8890 H         1 DIH1        0.0000
     11 H42         3.9060   -0.0530    0.8900 H         1 DIH1        0.0000
     12 C5          5.4490    1.1510    0.0000 C.2       1 DIH1        0.0000
     13 H51         5.5470    2.2480    0.0010 H         1 DIH1        0.0000
     14 C6          6.5710    0.4060    0.0000 C.2       1 DIH1        0.0000
     15 H61         7.5470    0.9170    0.0000 H         1 DIH1        0.0000
     16 C7          6.6270   -1.1020   -0.0000 C.3       1 DIH1        0.0000
     17 H71         5.6200   -1.5750    0.0000 H         1 DIH1        0.0000
     18 H72         7.1660   -1.4770    0.8960 H         1 DIH1        0.0000
     19 H73         7.1660   -1.4770   -0.8970 H         1 DIH1        0.0000
@<TRIPOS>BOND
     1   19   16 1 
     2    2    1 1 
     3   10    9 1 
     4    8    7 1 
     5    6    5 1 
     6    7    5 2 
     7    7    9 1 
     8    5    1 1 
     9    9   12 1 
    10    9   11 1 
    11   12   14 2 
    12   12   13 1 
    13   14   15 1 
    14   14   16 1 
    15   16   17 1 
    16   16   18 1 
    17    1    4 1 
    18    1    3 1 
