@<TRIPOS>MOLECULE
C:\Users\Praveer\PycharmProjects\pdb_to_mol2_converter\data\pdb\diol.pdb
   11    11     0     0     0
SMALL
GASTEIGER

@<TRIPOS>ATOM
      1 O1          2.0140    1.2690   -0.0030 O.3       1 DIO1        0.0000
      2 C2          1.0070    2.0880    0.6010 C.3       1 DIO1        0.0000
      3 H21         0.7730    2.9370   -0.0600 H         1 DIO1        0.0000
      4 H22         1.3520    2.4390    1.5860 H         1 DIO1        0.0000
      5 O3         -0.1490    1.2610    0.7620 O.3       1 DIO1        0.0000
      6 C4          0.0670    0.0610    0.0260 C.3       1 DIO1        0.0000
      7 H41        -0.3160    0.2220   -0.9930 H         1 DIO1        0.0000
      8 H42        -0.4890   -0.7630    0.4940 H         1 DIO1        0.0000
      9 C5          1.5700   -0.0830    0.0610 C.3       1 DIO1        0.0000
     10 H51         1.9290   -0.5060    1.0120 H         1 DIO1        0.0000
     11 H52         2.0030   -0.6520   -0.7730 H         1 DIO1        0.0000
@<TRIPOS>BOND
     1    7    6 1 
     2   11    9 1 
     3    3    2 1 
     4    1    9 1 
     5    1    2 1 
     6    6    9 1 
     7    6    8 1 
     8    6    5 1 
     9    9   10 1 
    10    2    5 1 
    11    2    4 1 
