@<TRIPOS>MOLECULE
C:\Users\Praveer\PycharmProjects\pdb_to_mol2_converter\data\pdb\diox.pdb
   14    14     0     0     0
SMALL
GASTEIGER

@<TRIPOS>ATOM
      1 O1         -0.0320    0.0600    0.0480 O.3       1 DIO1        0.0000
      2 C2          1.3870    0.0130    0.0190 C.3       1 DIO1        0.0000
      3 H21         1.7150   -0.5440   -0.8850 H         1 DIO1        0.0000
      4 H22         1.7590   -0.5320    0.9150 H         1 DIO1        0.0000
      5 C3          1.9890    1.4280    0.0020 C.3       1 DIO1        0.0000
      6 H31         1.6830    1.9440   -0.9350 H         1 DIO1        0.0000
      7 H32         3.0980    1.3630    0.0140 H         1 DIO1        0.0000
      8 O4          1.5540    2.1830    1.1240 O.3       1 DIO1        0.0000
      9 C5          0.1350    2.2310    1.1520 C.3       1 DIO1        0.0000
     10 H51        -0.2370    2.7760    0.2570 H         1 DIO1        0.0000
     11 H52        -0.1930    2.7880    2.0560 H         1 DIO1        0.0000
     12 C6         -0.4670    0.8160    1.1700 C.3       1 DIO1        0.0000
     13 H61        -0.1610    0.2990    2.1060 H         1 DIO1        0.0000
     14 H62        -1.5760    0.8810    1.1570 H         1 DIO1        0.0000
@<TRIPOS>BOND
     1    6    5 1 
     2    3    2 1 
     3    5    7 1 
     4    5    2 1 
     5    5    8 1 
     6    2    1 1 
     7    2    4 1 
     8    1   12 1 
     9   10    9 1 
    10    8    9 1 
    11    9   12 1 
    12    9   11 1 
    13   14   12 1 
    14   12   13 1 
