@<TRIPOS>MOLECULE
C:\Users\Praveer\PycharmProjects\pdb_to_mol2_converter\data\pdb\dipa.pdb
  112   111     0     0     0
SMALL
GASTEIGER

@<TRIPOS>ATOM
      1 P           1.6020    0.0670   -0.0290 P.3       1 DIP1        0.0000
      2 O13         2.1550   -0.4610    1.2280 O.3       1 DIP1        0.0000
      3 O14         2.1440   -0.4430   -1.3010 O.2       1 DIP1        0.0000
      4 O12         2.0290    1.5740   -0.0190 O.3       1 DIP1        0.0000
      5 H12         2.9880    1.5740   -0.0050 H         1 DIP1        0.0000
      6 O11         0.0210    0.0320   -0.0270 O.3       1 DIP1        0.0000
      7 C1         -0.6080   -1.2550   -0.0430 C.3       1 DIP1        0.0000
      8 HA         -0.2950   -1.8640    0.8390 H         1 DIP1        0.0000
      9 HB         -0.3390   -1.8080   -0.9740 H         1 DIP1        0.0000
     10 C2         -2.1530   -1.1200    0.0070 C.3       1 DIP1        0.0000
     11 HS         -2.4470   -0.4860   -0.8630 H         1 DIP1        0.0000
     12 O21        -2.5140   -0.4980    1.2540 O.3       1 DIP1        0.0000
     13 C21        -3.7190    0.0300    1.2900 C.2       1 DIP1        0.0000
     14 O22        -4.5430    0.0040    0.3960 O.2       1 DIP1        0.0000
     15 C22        -3.9250    0.6880    2.6560 C.3       1 DIP1        0.0000
     16 H2R        -3.5920    1.7420    2.5710 H         1 DIP1        0.0000
     17 H2S        -3.2770    0.1750    3.3970 H         1 DIP1        0.0000
     18 C3         -2.8410   -2.5080   -0.1220 C.3       1 DIP1        0.0000
     19 HX         -3.9450   -2.3820   -0.1480 H         1 DIP1        0.0000
     20 HY         -2.5690   -3.0690    0.8040 H         1 DIP1        0.0000
     21 O31        -2.3940   -3.1850   -1.3160 O.3       1 DIP1        0.0000
     22 C31        -2.5450   -4.5020   -1.2910 C.2       1 DIP1        0.0000
     23 O32        -3.0450   -5.1430   -0.3820 O.2       1 DIP1        0.0000
     24 C32        -1.9940   -5.1040   -2.5810 C.3       1 DIP1        0.0000
     25 H2X        -1.9400   -6.2040   -2.4450 H         1 DIP1        0.0000
     26 H2Y        -0.9660   -4.7120   -2.7260 H         1 DIP1        0.0000
     27 C23        -5.3960    0.6330    3.1250 C.3       1 DIP1        0.0000
     28 H3R        -5.7360   -0.4270    3.1660 H         1 DIP1        0.0000
     29 H3S        -6.0460    1.1700    2.3970 H         1 DIP1        0.0000
     30 C24        -5.5580    1.2690    4.5120 C.3       1 DIP1        0.0000
     31 H4R        -5.1650    2.3110    4.4710 H         1 DIP1        0.0000
     32 H4S        -4.9340    0.7060    5.2420 H         1 DIP1        0.0000
     33 C25        -7.0060    1.3130    5.0260 C.3       1 DIP1        0.0000
     34 H5R        -7.6320    1.9190    4.3350 H         1 DIP1        0.0000
     35 H5S        -7.0010    1.8320    6.0110 H         1 DIP1        0.0000
     36 C26        -7.6480   -0.0710    5.2110 C.3       1 DIP1        0.0000
     37 H6R        -6.9130   -0.7510    5.6980 H         1 DIP1        0.0000
     38 H6S        -7.8880   -0.4980    4.2130 H         1 DIP1        0.0000
     39 C27        -8.9150   -0.0150    6.0820 C.3       1 DIP1        0.0000
     40 H7R        -9.6450    0.6960    5.6380 H         1 DIP1        0.0000
     41 H7S        -8.6230    0.3900    7.0790 H         1 DIP1        0.0000
     42 C28        -9.5890   -1.3840    6.3090 C.3       1 DIP1        0.0000
     43 H8R       -10.4320   -1.2280    7.0210 H         1 DIP1        0.0000
     44 H8S        -8.8530   -2.0440    6.8240 H         1 DIP1        0.0000
     45 C29       -10.1030   -2.0390    5.0490 C.2       1 DIP1        0.0000
     46 H9R       -10.0840   -1.4250    4.1340 H         1 DIP1        0.0000
     47 C210      -10.5570   -3.3060    5.0010 C.2       1 DIP1        0.0000
     48 H10R      -10.9000   -3.7280    4.0420 H         1 DIP1        0.0000
     49 C211      -10.6210   -4.2010    6.2150 C.3       1 DIP1        0.0000
     50 H11R      -11.0830   -3.6400    7.0580 H         1 DIP1        0.0000
     51 H11S       -9.5790   -4.4210    6.5410 H         1 DIP1        0.0000
     52 C212      -11.3740   -5.4980    6.0440 C.2       1 DIP1        0.0000
     53 H12R      -11.9730   -5.6130    5.1270 H         1 DIP1        0.0000
     54 C213      -11.3540   -6.4900    6.9530 C.2       1 DIP1        0.0000
     55 H13R      -11.9280   -7.4110    6.7630 H         1 DIP1        0.0000
     56 C214      -10.5780   -6.4210    8.2470 C.3       1 DIP1        0.0000
     57 H14R      -10.9210   -5.5350    8.8270 H         1 DIP1        0.0000
     58 H14S       -9.5050   -6.2310    8.0190 H         1 DIP1        0.0000
     59 C215      -10.6740   -7.6440    9.1240 C.2       1 DIP1        0.0000
     60 H15R      -11.2920   -8.4780    8.7570 H         1 DIP1        0.0000
     61 C216      -10.0530   -7.7600   10.3100 C.2       1 DIP1        0.0000
     62 H16R      -10.1660   -8.6840   10.9000 H         1 DIP1        0.0000
     63 C217       -9.1830   -6.6920   10.9190 C.3       1 DIP1        0.0000
     64 H17R       -9.7650   -5.7530   11.0660 H         1 DIP1        0.0000
     65 H17S       -8.3380   -6.4420   10.2380 H         1 DIP1        0.0000
     66 C218       -8.6170   -7.1440   12.2720 C.3       1 DIP1        0.0000
     67 H18R       -7.9870   -8.0530   12.1580 H         1 DIP1        0.0000
     68 H18S       -9.4330   -7.3590   12.9950 H         1 DIP1        0.0000
     69 H18T       -7.9810   -6.3440   12.7050 H         1 DIP1        0.0000
     70 C33        -2.8730   -4.7580   -3.8050 C.3       1 DIP1        0.0000
     71 H3X        -2.3880   -5.1690   -4.7190 H         1 DIP1        0.0000
     72 H3Y        -2.9320   -3.6520   -3.9290 H         1 DIP1        0.0000
     73 C34        -4.2890   -5.3390   -3.6910 C.3       1 DIP1        0.0000
     74 H4X        -4.7980   -4.8670   -2.8210 H         1 DIP1        0.0000
     75 H4Y        -4.2270   -6.4320   -3.4860 H         1 DIP1        0.0000
     76 C35        -5.1440   -5.1190   -4.9490 C.3       1 DIP1        0.0000
     77 H5X        -4.7050   -5.7200   -5.7780 H         1 DIP1        0.0000
     78 H5Y        -5.1060   -4.0490   -5.2500 H         1 DIP1        0.0000
     79 C36        -6.6130   -5.5340   -4.7530 C.3       1 DIP1        0.0000
     80 H6X        -6.6440   -6.5310   -4.2610 H         1 DIP1        0.0000
     81 H6Y        -7.0970   -5.6370   -5.7510 H         1 DIP1        0.0000
     82 C37        -7.4330   -4.5270   -3.9270 C.3       1 DIP1        0.0000
     83 H7X        -7.4720   -3.5650   -4.4870 H         1 DIP1        0.0000
     84 H7Y        -6.9140   -4.3330   -2.9620 H         1 DIP1        0.0000
     85 C38        -8.8630   -5.0330   -3.6430 C.3       1 DIP1        0.0000
     86 H8X        -8.7800   -6.0160   -3.1220 H         1 DIP1        0.0000
     87 H8Y        -9.3670   -5.2230   -4.6180 H         1 DIP1        0.0000
     88 C39        -9.6720   -4.0570   -2.8240 C.2       1 DIP1        0.0000
     89 H9X        -9.3340   -3.0090   -2.8600 H         1 DIP1        0.0000
     90 C310      -10.7250   -4.3900   -2.0530 C.2       1 DIP1        0.0000
     91 H10X      -11.2490   -3.6040   -1.4850 H         1 DIP1        0.0000
     92 C311      -11.2680   -5.7940   -1.9340 C.3       1 DIP1        0.0000
     93 H11X      -10.4980   -6.4320   -1.4450 H         1 DIP1        0.0000
     94 H11Y      -11.4000   -6.2160   -2.9560 H         1 DIP1        0.0000
     95 C312      -12.5660   -5.9400   -1.1760 C.2       1 DIP1        0.0000
     96 H12X      -12.9970   -5.0270   -0.7340 H         1 DIP1        0.0000
     97 C313      -13.2060   -7.1140   -1.0260 C.2       1 DIP1        0.0000
     98 H13X      -14.1510   -7.1490   -0.4600 H         1 DIP1        0.0000
     99 C314      -12.7000   -8.4180   -1.5960 C.3       1 DIP1        0.0000
    100 H14X      -11.6720   -8.6090   -1.2110 H         1 DIP1        0.0000
    101 H14Y      -12.5910   -8.3140   -2.6990 H         1 DIP1        0.0000
    102 C315      -13.5610   -9.6210   -1.3030 C.2       1 DIP1        0.0000
    103 H15X      -14.4680   -9.4530   -0.7020 H         1 DIP1        0.0000
    104 C316      -13.2850  -10.8640   -1.7340 C.2       1 DIP1        0.0000
    105 H16X      -13.9630  -11.6940   -1.4810 H         1 DIP1        0.0000
    106 C317      -12.0810  -11.2280   -2.5640 C.3       1 DIP1        0.0000
    107 H17X      -11.1430  -10.9620   -2.0260 H         1 DIP1        0.0000
    108 H17Y      -12.0790  -10.6540   -3.5190 H         1 DIP1        0.0000
    109 C318      -12.0610  -12.7290   -2.8860 C.3       1 DIP1        0.0000
    110 H18X      -12.9610  -13.0260   -3.4670 H         1 DIP1        0.0000
    111 H18Y      -12.0140  -13.3380   -1.9570 H         1 DIP1        0.0000
    112 H18Z      -11.1670  -12.9740   -3.4980 H         1 DIP1        0.0000
@<TRIPOS>BOND
     1   77   76 1 
     2   81   79 1 
     3   78   76 1 
     4   76   79 1 
     5   76   73 1 
     6   79   80 1 
     7   79   82 1 
     8   71   70 1 
     9   87   85 1 
    10   83   82 1 
    11   72   70 1 
    12   82   85 1 
    13   82   84 1 
    14   70   73 1 
    15   70   24 1 
    16   73   75 1 
    17   73   74 1 
    18   85   86 1 
    19   85   88 1 
    20  108  106 1 
    21  112  109 1 
    22  110  109 1 
    23   94   92 1 
    24  109  106 1 
    25  109  111 1 
    26   89   88 1 
    27   88   90 2 
    28   26   24 1 
    29  101   99 1 
    30   24   25 1 
    31   24   22 1 
    32  106  107 1 
    33  106  104 1 
    34   90   92 1 
    35   90   91 1 
    36   92   93 1 
    37   92   95 1 
    38  104  105 1 
    39  104  102 2 
    40   99  102 1 
    41   99  100 1 
    42   99   97 1 
    43   21   22 1 
    44   21   18 1 
    45  102  103 1 
    46    3    1 2 
    47   22   23 2 
    48   95   97 2 
    49   95   96 1 
    50   97   98 1 
    51    9    7 1 
    52   11   10 1 
    53   19   18 1 
    54   18   10 1 
    55   18   20 1 
    56    7    6 1 
    57    7   10 1 
    58    7    8 1 
    59    1    6 1 
    60    1    4 1 
    61    1    2 1 
    62    4    5 1 
    63   10   12 1 
    64   14   13 2 
    65   12   13 1 
    66   13   15 1 
    67   29   27 1 
    68   16   15 1 
    69   15   27 1 
    70   15   17 1 
    71   27   28 1 
    72   27   30 1 
    73   48   47 1 
    74   46   45 1 
    75   38   36 1 
    76   34   33 1 
    77   31   30 1 
    78   30   33 1 
    79   30   32 1 
    80   47   45 2 
    81   47   49 1 
    82   33   36 1 
    83   33   35 1 
    84   45   42 1 
    85   53   52 1 
    86   36   37 1 
    87   36   39 1 
    88   40   39 1 
    89   52   49 1 
    90   52   54 2 
    91   39   42 1 
    92   39   41 1 
    93   49   51 1 
    94   49   50 1 
    95   42   44 1 
    96   42   43 1 
    97   55   54 1 
    98   54   56 1 
    99   58   56 1 
   100   56   57 1 
   101   56   59 1 
   102   60   59 1 
   103   59   61 2 
   104   65   63 1 
   105   61   62 1 
   106   61   63 1 
   107   63   64 1 
   108   63   66 1 
   109   67   66 1 
   110   66   69 1 
   111   66   68 1 
