@<TRIPOS>MOLECULE
C:\Users\Praveer\PycharmProjects\pdb_to_mol2_converter\data\pdb\dipe.pdb
   13    12     0     0     0
SMALL
GASTEIGER

@<TRIPOS>ATOM
      1 C1          1.1050   -0.0080   -0.0000 C.2       1 DIP1        0.0000
      2 H11         0.0050   -0.0440   -0.0000 H         1 DIP1        0.0000
      3 H12         1.6610   -0.9580    0.0000 H         1 DIP1        0.0000
      4 C2          1.7630    1.1650    0.0000 C.2       1 DIP1        0.0000
      5 H21         1.1680    2.0940   -0.0000 H         1 DIP1        0.0000
      6 C3          3.2630    1.3170   -0.0000 C.3       1 DIP1        0.0000
      7 H31         3.6800    0.7930   -0.8890 H         1 DIP1        0.0000
      8 H32         3.6800    0.7930    0.8890 H         1 DIP1        0.0000
      9 C4          3.7490    2.7440    0.0000 C.2       1 DIP1        0.0000
     10 H41         2.9770    3.5330   -0.0000 H         1 DIP1        0.0000
     11 C5          5.0390    3.1210   -0.0000 C.2       1 DIP1        0.0000
     12 H51         5.8400    2.3660    0.0000 H         1 DIP1        0.0000
     13 H52         5.3210    4.1850   -0.0000 H         1 DIP1        0.0000
@<TRIPOS>BOND
     1    7    6 1 
     2    1    2 1 
     3    1    3 1 
     4    1    4 2 
     5    4    5 1 
     6    4    6 1 
     7    6    9 1 
     8    6    8 1 
     9    9   10 1 
    10    9   11 2 
    11   11   12 1 
    12   11   13 1 
