@<TRIPOS>MOLECULE
C:\Users\Praveer\PycharmProjects\pdb_to_mol2_converter\data\pdb\dith.pdb
   14    14     0     0     0
SMALL
GASTEIGER

@<TRIPOS>ATOM
      1 S1          0.0150   -0.0220    0.2930 S.3       1 DIT1        0.0000
      2 C2          1.8140   -0.0100    0.0070 C.3       1 DIT1        0.0000
      3 H21         2.0480   -0.4940   -0.9670 H         1 DIT1        0.0000
      4 H22         2.3070   -0.6210    0.7960 H         1 DIT1        0.0000
      5 C3          2.4520    1.3940    0.0270 C.3       1 DIT1        0.0000
      6 H31         3.5570    1.2670    0.0560 H         1 DIT1        0.0000
      7 H32         2.1620    1.9030    0.9730 H         1 DIT1        0.0000
      8 S4          2.0170    2.4360   -1.4020 S.3       1 DIT1        0.0000
      9 C5          0.2190    2.4250   -1.1150 C.3       1 DIT1        0.0000
     10 H51        -0.2740    3.0360   -1.9040 H         1 DIT1        0.0000
     11 H52        -0.0150    2.9080   -0.1410 H         1 DIT1        0.0000
     12 C6         -0.4200    1.0210   -1.1350 C.3       1 DIT1        0.0000
     13 H61        -1.5250    1.1480   -1.1640 H         1 DIT1        0.0000
     14 H62        -0.1300    0.5120   -2.0810 H         1 DIT1        0.0000
@<TRIPOS>BOND
     1   14   12 1 
     2   10    9 1 
     3    8    9 1 
     4    8    5 1 
     5   13   12 1 
     6   12    9 1 
     7   12    1 1 
     8    9   11 1 
     9    3    2 1 
    10    2    5 1 
    11    2    1 1 
    12    2    4 1 
    13    5    6 1 
    14    5    7 1 
