@<TRIPOS>MOLECULE
C:\Users\Praveer\PycharmProjects\pdb_to_mol2_converter\data\pdb\dixb.pdb
   14    14     0     0     0
SMALL
GASTEIGER

@<TRIPOS>ATOM
      1 O1          1.2170    0.1620    0.1160 O.3       1 DIX1        0.0000
      2 C2          1.9690    1.3520   -0.0900 C.3       1 DIX1        0.0000
      3 H21         3.0380    1.0670   -0.2070 H         1 DIX1        0.0000
      4 H22         1.9100    2.0160    0.8020 H         1 DIX1        0.0000
      5 O3          1.5750    2.0530   -1.2660 O.3       1 DIX1        0.0000
      6 C4          0.1690    2.2170   -1.3790 C.3       1 DIX1        0.0000
      7 H41        -0.1860    1.5660   -2.2090 H         1 DIX1        0.0000
      8 H42        -0.0600    3.2710   -1.6510 H         1 DIX1        0.0000
      9 C5         -0.5670    1.8250   -0.0940 C.3       1 DIX1        0.0000
     10 H51        -1.6660    1.8720   -0.2440 H         1 DIX1        0.0000
     11 H52        -0.3080    2.5630    0.6990 H         1 DIX1        0.0000
     12 C6         -0.1560    0.4240    0.3710 C.3       1 DIX1        0.0000
     13 H61        -0.3770    0.2930    1.4530 H         1 DIX1        0.0000
     14 H62        -0.7470   -0.3350   -0.1910 H         1 DIX1        0.0000
@<TRIPOS>BOND
     1    7    6 1 
     2    8    6 1 
     3    6    5 1 
     4    6    9 1 
     5    5    2 1 
     6   10    9 1 
     7    3    2 1 
     8   14   12 1 
     9    9   12 1 
    10    9   11 1 
    11    2    1 1 
    12    2    4 1 
    13    1   12 1 
    14   12   13 1 
