@<TRIPOS>MOLECULE
C:\Users\Praveer\PycharmProjects\pdb_to_mol2_converter\data\pdb\dl16pp.pdb
  221   220     0     0     0
SMALL
GASTEIGER

@<TRIPOS>ATOM
      1 P2          1.4840    0.0150   -0.0280 P.3       1 DL11        0.0000
      2 O22         1.9770    1.5030    0.0200 O.3       1 DL11        0.0000
      3 HO22        2.1580    1.5120    0.9740 H         1 DL11        0.0000
      4 O23         1.9990   -0.3640    1.3220 O.3       1 DL11        0.0000
      5 O24         2.0410   -0.6260   -1.2620 O.2       1 DL11        0.0000
      6 P1         -1.3640   -0.8940    0.0560 P.3       1 DL11        0.0000
      7 O12        -0.1260    0.1620   -0.0270 O.3       1 DL11        0.0000
      8 O13        -1.4920   -1.7070   -1.2070 O.2       1 DL11        0.0000
      9 O14        -1.4210   -1.5950    1.3890 O.3       1 DL11        0.0000
     10 O11        -2.6600    0.1050    0.0530 O.3       1 DL11        0.0000
     11 C1         -3.9350   -0.5510    0.0160 C.3       1 DL11        0.0000
     12 H11        -4.0960   -1.1420    0.9490 H         1 DL11        0.0000
     13 H12        -3.9950   -1.2380   -0.8610 H         1 DL11        0.0000
     14 C2         -5.0250    0.5230   -0.1050 C.3       1 DL11        0.0000
     15 H21        -4.8230    1.1060   -1.0300 H         1 DL11        0.0000
     16 H22        -4.9060    1.2140    0.7590 H         1 DL11        0.0000
     17 C3         -6.4750   -0.0200   -0.1380 C.3       1 DL11        0.0000
     18 H3         -6.6170   -0.6310    0.7850 H         1 DL11        0.0000
     19 C4         -6.7110   -0.9330   -1.3580 C.3       1 DL11        0.0000
     20 H41        -6.0100   -1.7940   -1.3450 H         1 DL11        0.0000
     21 H42        -6.5450   -0.3640   -2.2980 H         1 DL11        0.0000
     22 H43        -7.7400   -1.3410   -1.3610 H         1 DL11        0.0000
     23 C5         -7.4880    1.1520   -0.0910 C.3       1 DL11        0.0000
     24 H51        -7.3830    1.7320   -1.0360 H         1 DL11        0.0000
     25 H52        -7.1970    1.8190    0.7520 H         1 DL11        0.0000
     26 C1A        -8.9610    0.7240    0.0950 C.3       1 DL11        0.0000
     27 H1A1       -9.0370    0.1440    1.0420 H         1 DL11        0.0000
     28 H1A2       -9.2430    0.0400   -0.7350 H         1 DL11        0.0000
     29 C1B        -9.9040    1.9040    0.1220 C.2       1 DL11        0.0000
     30 H1B        -9.4230    2.8910    0.1730 H         1 DL11        0.0000
     31 C1C       -11.2490    1.8400    0.0690 C.2       1 DL11        0.0000
     32 C1D       -12.0500    3.1190    0.0710 C.3       1 DL11        0.0000
     33 H1D1      -11.4150    4.0320    0.1030 H         1 DL11        0.0000
     34 H1D2      -12.7270    3.1620    0.9510 H         1 DL11        0.0000
     35 H1D3      -12.6800    3.1920   -0.8410 H         1 DL11        0.0000
     36 C1E       -11.9500    0.5000    0.0050 C.3       1 DL11        0.0000
     37 H1E1      -11.6150   -0.1270    0.8640 H         1 DL11        0.0000
     38 H1E2      -11.6400   -0.0320   -0.9230 H         1 DL11        0.0000
     39 C2A       -13.5000    0.5400    0.0280 C.3       1 DL11        0.0000
     40 H2A1      -13.8560    1.1200   -0.8540 H         1 DL11        0.0000
     41 H2A2      -13.8320    1.0790    0.9450 H         1 DL11        0.0000
     42 C2B       -14.1040   -0.8450    0.0090 C.2       1 DL11        0.0000
     43 H2B       -13.3840   -1.6780    0.0070 H         1 DL11        0.0000
     44 C2C       -15.4200   -1.1270   -0.0010 C.2       1 DL11        0.0000
     45 C2D       -15.8660   -2.5690   -0.0120 C.3       1 DL11        0.0000
     46 H2D1      -15.0180   -3.2890   -0.0130 H         1 DL11        0.0000
     47 H2D2      -16.4800   -2.7850   -0.9120 H         1 DL11        0.0000
     48 H2D3      -16.4860   -2.7960    0.8820 H         1 DL11        0.0000
     49 C2E       -16.4390   -0.0090    0.0020 C.3       1 DL11        0.0000
     50 H2E1      -16.2750    0.6350   -0.8930 H         1 DL11        0.0000
     51 H2E2      -16.2750    0.6330    0.8980 H         1 DL11        0.0000
     52 C3A       -17.9270   -0.4450    0.0010 C.3       1 DL11        0.0000
     53 H3A1      -18.1170   -1.0740    0.9000 H         1 DL11        0.0000
     54 H3A2      -18.1170   -1.0720   -0.9000 H         1 DL11        0.0000
     55 C3B       -18.8610    0.7440    0.0010 C.2       1 DL11        0.0000
     56 H3B       -18.3740    1.7300    0.0010 H         1 DL11        0.0000
     57 C3C       -20.2060    0.6860    0.0010 C.2       1 DL11        0.0000
     58 C3D       -21.0000    1.9690    0.0000 C.3       1 DL11        0.0000
     59 H3D1      -20.3600    2.8790    0.0010 H         1 DL11        0.0000
     60 H3D2      -21.6520    2.0290    0.8980 H         1 DL11        0.0000
     61 H3D3      -21.6520    2.0290   -0.8970 H         1 DL11        0.0000
     62 C3E       -20.9100   -0.6530    0.0000 C.3       1 DL11        0.0000
     63 H3E1      -20.5890   -1.2340    0.8950 H         1 DL11        0.0000
     64 H3E2      -20.5890   -1.2340   -0.8950 H         1 DL11        0.0000
     65 C4A       -22.4600   -0.6070    0.0000 C.3       1 DL11        0.0000
     66 H4A1      -22.8020   -0.0460   -0.9000 H         1 DL11        0.0000
     67 H4A2      -22.8020   -0.0470    0.9000 H         1 DL11        0.0000
     68 C4B       -23.0610   -1.9930   -0.0000 C.2       1 DL11        0.0000
     69 H4B       -22.3410   -2.8240   -0.0000 H         1 DL11        0.0000
     70 C4C       -24.3770   -2.2760   -0.0000 C.2       1 DL11        0.0000
     71 C4D       -24.8220   -3.7180   -0.0000 C.3       1 DL11        0.0000
     72 H4D1      -23.9730   -4.4380   -0.0000 H         1 DL11        0.0000
     73 H4D2      -25.4380   -3.9410   -0.8970 H         1 DL11        0.0000
     74 H4D3      -25.4380   -3.9410    0.8970 H         1 DL11        0.0000
     75 C4E       -25.3930   -1.1570    0.0000 C.3       1 DL11        0.0000
     76 H4E1      -25.2280   -0.5140   -0.8950 H         1 DL11        0.0000
     77 H4E2      -25.2280   -0.5140    0.8950 H         1 DL11        0.0000
     78 C5A       -26.8810   -1.5900   -0.0000 C.3       1 DL11        0.0000
     79 H5A1      -27.0730   -2.2180    0.9000 H         1 DL11        0.0000
     80 H5A2      -27.0730   -2.2180   -0.9000 H         1 DL11        0.0000
     81 C5B       -27.8090   -0.3980    0.0000 C.2       1 DL11        0.0000
     82 H5B       -27.3200    0.5870    0.0000 H         1 DL11        0.0000
     83 C5C       -29.1540   -0.4540    0.0000 C.2       1 DL11        0.0000
     84 C5D       -29.9480    0.8300    0.0000 C.3       1 DL11        0.0000
     85 H5D1      -29.3070    1.7390    0.0000 H         1 DL11        0.0000
     86 H5D2      -30.6000    0.8900    0.8970 H         1 DL11        0.0000
     87 H5D3      -30.6000    0.8900   -0.8970 H         1 DL11        0.0000
     88 C5E       -29.8540   -1.7940   -0.0000 C.3       1 DL11        0.0000
     89 H5E1      -29.5320   -2.3740    0.8960 H         1 DL11        0.0000
     90 H5E2      -29.5320   -2.3740   -0.8960 H         1 DL11        0.0000
     91 C6A       -31.4030   -1.7500    0.0000 C.3       1 DL11        0.0000
     92 H6A1      -31.7470   -1.1910   -0.9000 H         1 DL11        0.0000
     93 H6A2      -31.7470   -1.1910    0.9000 H         1 DL11        0.0000
     94 C6B       -31.9970   -3.1390   -0.0000 C.2       1 DL11        0.0000
     95 H6B       -31.2740   -3.9680   -0.0000 H         1 DL11        0.0000
     96 C6C       -33.3120   -3.4250   -0.0000 C.2       1 DL11        0.0000
     97 C6D       -33.7560   -4.8670   -0.0000 C.3       1 DL11        0.0000
     98 H6D1      -32.9060   -5.5860   -0.0000 H         1 DL11        0.0000
     99 H6D2      -34.3720   -5.0900   -0.8970 H         1 DL11        0.0000
    100 H6D3      -34.3720   -5.0900    0.8970 H         1 DL11        0.0000
    101 C6E       -34.3270   -2.3040   -0.0000 C.3       1 DL11        0.0000
    102 H6E1      -34.1610   -1.6620   -0.8960 H         1 DL11        0.0000
    103 H6E2      -34.1610   -1.6620    0.8960 H         1 DL11        0.0000
    104 C7A       -35.8140   -2.7370    0.0000 C.3       1 DL11        0.0000
    105 H7A1      -36.0060   -3.3640    0.9000 H         1 DL11        0.0000
    106 H7A2      -36.0060   -3.3640   -0.9000 H         1 DL11        0.0000
    107 C7B       -36.7370   -1.5410    0.0000 C.2       1 DL11        0.0000
    108 H7B       -36.2460   -0.5570    0.0000 H         1 DL11        0.0000
    109 C7C       -38.0810   -1.5950    0.0000 C.2       1 DL11        0.0000
    110 C7D       -38.8750   -0.3120    0.0000 C.3       1 DL11        0.0000
    111 H7D1      -38.2340    0.5970   -0.0000 H         1 DL11        0.0000
    112 H7D2      -39.5270   -0.2520    0.8970 H         1 DL11        0.0000
    113 H7D3      -39.5270   -0.2520   -0.8970 H         1 DL11        0.0000
    114 C7E       -38.7790   -2.9360    0.0000 C.3       1 DL11        0.0000
    115 H7E1      -38.4560   -3.5160    0.8960 H         1 DL11        0.0000
    116 H7E2      -38.4560   -3.5160   -0.8960 H         1 DL11        0.0000
    117 C8A       -40.3270   -2.8940   -0.0000 C.3       1 DL11        0.0000
    118 H8A1      -40.6710   -2.3350   -0.9000 H         1 DL11        0.0000
    119 H8A2      -40.6710   -2.3350    0.9000 H         1 DL11        0.0000
    120 C8B       -40.9170   -4.2840   -0.0000 C.2       1 DL11        0.0000
    121 H8B       -40.1930   -5.1130   -0.0000 H         1 DL11        0.0000
    122 C8C       -42.2310   -4.5690    0.0000 C.2       1 DL11        0.0000
    123 C8D       -42.6780   -6.0110    0.0000 C.3       1 DL11        0.0000
    124 H8D1      -41.8300   -6.7300    0.0000 H         1 DL11        0.0000
    125 H8D2      -43.2940   -6.2320   -0.8970 H         1 DL11        0.0000
    126 H8D3      -43.2940   -6.2320    0.8970 H         1 DL11        0.0000
    127 C8E       -43.2420   -3.4450    0.0000 C.3       1 DL11        0.0000
    128 H8E1      -43.0750   -2.8030   -0.8960 H         1 DL11        0.0000
    129 H8E2      -43.0750   -2.8030    0.8960 H         1 DL11        0.0000
    130 C9A       -44.7280   -3.8750    0.0000 C.3       1 DL11        0.0000
    131 H9A1      -44.9220   -4.5020    0.9000 H         1 DL11        0.0000
    132 H9A2      -44.9220   -4.5020   -0.9000 H         1 DL11        0.0000
    133 C9B       -45.6490   -2.6780   -0.0000 C.2       1 DL11        0.0000
    134 H9B       -45.1580   -1.6930   -0.0000 H         1 DL11        0.0000
    135 C9C       -46.9920   -2.7350   -0.0000 C.2       1 DL11        0.0000
    136 C9D       -47.7910   -1.4550   -0.0000 C.3       1 DL11        0.0000
    137 H9D1      -47.1540   -0.5430   -0.0000 H         1 DL11        0.0000
    138 H9D2      -48.4440   -1.3980    0.8970 H         1 DL11        0.0000
    139 H9D3      -48.4440   -1.3980   -0.8970 H         1 DL11        0.0000
    140 C9E       -47.6830   -4.0800   -0.0000 C.3       1 DL11        0.0000
    141 H9E1      -47.3580   -4.6590    0.8960 H         1 DL11        0.0000
    142 H9E2      -47.3580   -4.6590   -0.8960 H         1 DL11        0.0000
    143 C10A      -49.2290   -4.0410   -0.0000 C.3       1 DL11        0.0000
    144 H10A      -49.5750   -3.4830   -0.9000 H         1 DL11        0.0000
    145 H10A      -49.5750   -3.4830    0.9000 H         1 DL11        0.0000
    146 C10B      -49.8180   -5.4320    0.0000 C.2       1 DL11        0.0000
    147 H10B      -49.0960   -6.2620   -0.0000 H         1 DL11        0.0000
    148 C10C      -51.1330   -5.7120   -0.0000 C.2       1 DL11        0.0000
    149 C10D      -51.5880   -7.1500   -0.0000 C.3       1 DL11        0.0000
    150 H10D      -50.7440   -7.8750   -0.0000 H         1 DL11        0.0000
    151 H10D      -52.2060   -7.3680   -0.8970 H         1 DL11        0.0000
    152 H10D      -52.2060   -7.3680    0.8970 H         1 DL11        0.0000
    153 C10E      -52.1350   -4.5800   -0.0000 C.3       1 DL11        0.0000
    154 H10E      -51.9630   -3.9390   -0.8960 H         1 DL11        0.0000
    155 H10E      -51.9630   -3.9390    0.8960 H         1 DL11        0.0000
    156 C11A      -53.6240   -4.9980    0.0000 C.3       1 DL11        0.0000
    157 H11A      -53.8220   -5.6230    0.9000 H         1 DL11        0.0000
    158 H11A      -53.8220   -5.6230   -0.9000 H         1 DL11        0.0000
    159 C11B      -54.5350   -3.7930    0.0000 C.2       1 DL11        0.0000
    160 H11B      -54.0370   -2.8120    0.0000 H         1 DL11        0.0000
    161 C11C      -55.8790   -3.8420   -0.0000 C.2       1 DL11        0.0000
    162 C11D      -56.6720   -2.5580   -0.0000 C.3       1 DL11        0.0000
    163 H11D      -56.0300   -1.6500   -0.0000 H         1 DL11        0.0000
    164 H11D      -57.3240   -2.4990    0.8970 H         1 DL11        0.0000
    165 H11D      -57.3240   -2.4990   -0.8970 H         1 DL11        0.0000
    166 C11E      -56.5770   -5.1820   -0.0000 C.3       1 DL11        0.0000
    167 H11E      -56.2540   -5.7620    0.8960 H         1 DL11        0.0000
    168 H11E      -56.2540   -5.7620   -0.8960 H         1 DL11        0.0000
    169 C12A      -58.1240   -5.1370    0.0000 C.3       1 DL11        0.0000
    170 H12A      -58.4700   -4.5810   -0.9000 H         1 DL11        0.0000
    171 H12A      -58.4700   -4.5810    0.9000 H         1 DL11        0.0000
    172 C12B      -58.7050   -6.5290    0.0000 C.2       1 DL11        0.0000
    173 H12B      -57.9760   -7.3520    0.0000 H         1 DL11        0.0000
    174 C12C      -60.0160   -6.8280   -0.0000 C.2       1 DL11        0.0000
    175 C12D      -60.4310   -8.2800    0.0000 C.3       1 DL11        0.0000
    176 H12D      -59.5680   -8.9830    0.0000 H         1 DL11        0.0000
    177 H12D      -61.0410   -8.5170   -0.8970 H         1 DL11        0.0000
    178 H12D      -61.0410   -8.5170    0.8970 H         1 DL11        0.0000
    179 C12E      -61.0500   -5.7220   -0.0000 C.3       1 DL11        0.0000
    180 H12E      -60.9030   -5.0760   -0.8960 H         1 DL11        0.0000
    181 H12E      -60.9030   -5.0760    0.8960 H         1 DL11        0.0000
    182 C13A      -62.5200   -6.2060   -0.0000 C.3       1 DL11        0.0000
    183 H13A      -62.6750   -6.8440    0.9000 H         1 DL11        0.0000
    184 H13A      -62.6750   -6.8440   -0.9000 H         1 DL11        0.0000
    185 C13B      -63.5420   -5.0920   -0.0000 C.2       1 DL11        0.0000
    186 H13B      -63.1420   -4.0680   -0.0000 H         1 DL11        0.0000
    187 C13C      -64.8790   -5.2720    0.0000 C.2       1 DL11        0.0000
    188 C13D      -65.4650   -6.6690   -0.0000 C.3       1 DL11        0.0000
    189 H13D      -64.7120   -7.4860   -0.0000 H         1 DL11        0.0000
    190 H13D      -66.0990   -6.8290   -0.8970 H         1 DL11        0.0000
    191 H13D      -66.0990   -6.8290    0.8970 H         1 DL11        0.0000
    192 C13E      -65.8040   -4.0690    0.0000 C.3       1 DL11        0.0000
    193 H13E      -65.6070   -3.4380   -0.8960 H         1 DL11        0.0000
    194 H13E      -65.6070   -3.4380    0.8960 H         1 DL11        0.0000
    195 C14A      -67.3090   -4.4550   -0.0000 C.3       1 DL11        0.0000
    196 H14A      -67.4880   -5.0850    0.9010 H         1 DL11        0.0000
    197 H14A      -67.4880   -5.0850   -0.9010 H         1 DL11        0.0000
    198 C14B      -68.3330   -3.3460   -0.0000 C.2       1 DL11        0.0000
    199 H14B      -67.9490   -2.3150    0.0000 H         1 DL11        0.0000
    200 C14C      -69.6690   -3.5600    0.0000 C.2       1 DL11        0.0000
    201 C14D      -70.2280   -4.9670   -0.0000 C.3       1 DL11        0.0000
    202 H14D      -69.4630   -5.7710    0.0000 H         1 DL11        0.0000
    203 H14D      -70.8600   -5.1380   -0.8970 H         1 DL11        0.0000
    204 H14D      -70.8600   -5.1380    0.8970 H         1 DL11        0.0000
    205 C14E      -70.6300   -2.3880    0.0000 C.3       1 DL11        0.0000
    206 H14E      -70.4450   -1.7530   -0.8960 H         1 DL11        0.0000
    207 H14E      -70.4450   -1.7530    0.8960 H         1 DL11        0.0000
    208 C15A      -72.1300   -2.7950    0.0000 C.3       1 DL11        0.0000
    209 H15A      -72.3210   -3.4230    0.9000 H         1 DL11        0.0000
    210 H15A      -72.3210   -3.4230   -0.9000 H         1 DL11        0.0000
    211 C15B      -73.1070   -1.6450    0.0000 C.2       1 DL11        0.0000
    212 H15B      -72.6620   -0.6390    0.0000 H         1 DL11        0.0000
    213 C15C      -74.4500   -1.7630    0.0000 C.2       1 DL11        0.0000
    214 C15D      -75.1540   -3.0960    0.0000 C.3       1 DL11        0.0000
    215 H15D      -74.4670   -3.9690   -0.0000 H         1 DL11        0.0000
    216 H15D      -75.8050   -3.1920   -0.8960 H         1 DL11        0.0000
    217 H15D      -75.8050   -3.1920    0.8960 H         1 DL11        0.0000
    218 C15E      -75.3240   -0.5380    0.0000 C.3       1 DL11        0.0000
    219 H15E      -74.7470    0.4130    0.0000 H         1 DL11        0.0000
    220 H15E      -75.9810   -0.5300    0.8960 H         1 DL11        0.0000
    221 H15E      -75.9810   -0.5300   -0.8960 H         1 DL11        0.0000
@<TRIPOS>BOND
     1   21   19 1 
     2   22   19 1 
     3   19   20 1 
     4   19   17 1 
     5    5    1 2 
     6    8    6 2 
     7   24   23 1 
     8   15   14 1 
     9   38   36 1 
    10   47   45 1 
    11  197  195 1 
    12  210  208 1 
    13  144  143 1 
    14   66   65 1 
    15   92   91 1 
    16  132  130 1 
    17  118  117 1 
    18  106  104 1 
    19   80   78 1 
    20  158  156 1 
    21   54   52 1 
    22  184  182 1 
    23  170  169 1 
    24  190  188 1 
    25  177  175 1 
    26  113  110 1 
    27  165  162 1 
    28  151  149 1 
    29   87   84 1 
    30   61   58 1 
    31   99   97 1 
    32   73   71 1 
    33  125  123 1 
    34  139  136 1 
    35  203  201 1 
    36  154  153 1 
    37  116  114 1 
    38  206  205 1 
    39   90   88 1 
    40  128  127 1 
    41  180  179 1 
    42  216  214 1 
    43  193  192 1 
    44  168  166 1 
    45  221  218 1 
    46  142  140 1 
    47  102  101 1 
    48   64   62 1 
    49   76   75 1 
    50   50   49 1 
    51   13   11 1 
    52   40   39 1 
    53   35   32 1 
    54   28   26 1 
    55   17   14 1 
    56   17   23 1 
    57   17   18 1 
    58   14   11 1 
    59   14   16 1 
    60   23   26 1 
    61   23   25 1 
    62    1    7 1 
    63    1    2 1 
    64    1    4 1 
    65    7    6 1 
    66   46   45 1 
    67   45   44 1 
    68   45   48 1 
    69   44   49 1 
    70   44   42 2 
    71  186  185 1 
    72  187  188 1 
    73  187  192 1 
    74  187  185 2 
    75  188  189 1 
    76  188  191 1 
    77  192  195 1 
    78  192  194 1 
    79  195  198 1 
    80  195  196 1 
    81  198  199 1 
    82  198  200 2 
    83  200  201 1 
    84  200  205 1 
    85  201  202 1 
    86  201  204 1 
    87  205  208 1 
    88  205  207 1 
    89  208  211 1 
    90  208  209 1 
    91  211  212 1 
    92  211  213 2 
    93  213  214 1 
    94  213  218 1 
    95  214  215 1 
    96  214  217 1 
    97  218  219 1 
    98  218  220 1 
    99   58   57 1 
   100   58   59 1 
   101   58   60 1 
   102   62   65 1 
   103   62   57 1 
   104   62   63 1 
   105   65   68 1 
   106   65   67 1 
   107   68   69 1 
   108   68   70 2 
   109   70   71 1 
   110   70   75 1 
   111   71   72 1 
   112   71   74 1 
   113   75   78 1 
   114   75   77 1 
   115   78   81 1 
   116   78   79 1 
   117   81   82 1 
   118   81   83 2 
   119   83   84 1 
   120   83   88 1 
   121   84   85 1 
   122   84   86 1 
   123   88   91 1 
   124   88   89 1 
   125   91   94 1 
   126   91   93 1 
   127   94   95 1 
   128   94   96 2 
   129   96   97 1 
   130   96  101 1 
   131   97   98 1 
   132   97  100 1 
   133  101  104 1 
   134  101  103 1 
   135  104  107 1 
   136  104  105 1 
   137  107  108 1 
   138  107  109 2 
   139  109  110 1 
   140  109  114 1 
   141  110  111 1 
   142  110  112 1 
   143  114  117 1 
   144  114  115 1 
   145  117  120 1 
   146  117  119 1 
   147  120  121 1 
   148  120  122 2 
   149  122  123 1 
   150  122  127 1 
   151  123  124 1 
   152  123  126 1 
   153  127  130 1 
   154  127  129 1 
   155  130  133 1 
   156  130  131 1 
   157  133  134 1 
   158  133  135 2 
   159  135  136 1 
   160  135  140 1 
   161  136  137 1 
   162  136  138 1 
   163  140  143 1 
   164  140  141 1 
   165  143  146 1 
   166  143  145 1 
   167  146  147 1 
   168  146  148 2 
   169  148  149 1 
   170  148  153 1 
   171  149  150 1 
   172  149  152 1 
   173  153  156 1 
   174  153  155 1 
   175  156  159 1 
   176  156  157 1 
   177  159  160 1 
   178  159  161 2 
   179  161  162 1 
   180  161  166 1 
   181  162  163 1 
   182  162  164 1 
   183  166  169 1 
   184  166  167 1 
   185  169  172 1 
   186  169  171 1 
   187  172  173 1 
   188  172  174 2 
   189  174  175 1 
   190  174  179 1 
   191  175  176 1 
   192  175  178 1 
   193  179  182 1 
   194  179  181 1 
   195  182  185 1 
   196  182  183 1 
   197   52   55 1 
   198   52   49 1 
   199   52   53 1 
   200   56   55 1 
   201   55   57 2 
   202   49   51 1 
   203   36   39 1 
   204   36   31 1 
   205   36   37 1 
   206   43   42 1 
   207   42   39 1 
   208   11   10 1 
   209   11   12 1 
   210    2    3 1 
   211   39   41 1 
   212   10    6 1 
   213    6    9 1 
   214   31   32 1 
   215   31   29 2 
   216   32   33 1 
   217   32   34 1 
   218   26   29 1 
   219   26   27 1 
   220   29   30 1 
