@<TRIPOS>MOLECULE
C:\Users\Praveer\PycharmProjects\pdb_to_mol2_converter\data\pdb\dl19pp.pdb
  260   259     0     0     0
SMALL
GASTEIGER

@<TRIPOS>ATOM
      1 P2          1.4720    0.0410   -0.1080 P.3       1 DL11        0.0000
      2 O22         1.9640    1.5280   -0.0120 O.3       1 DL11        0.0000
      3 HO22        2.1000    1.5280    0.9490 H         1 DL11        0.0000
      4 O23         1.9190   -0.3630    1.2580 O.3       1 DL11        0.0000
      5 O24         2.0950   -0.5780   -1.3210 O.2       1 DL11        0.0000
      6 P1         -1.3710   -0.8970   -0.1090 P.3       1 DL11        0.0000
      7 O12        -0.1400    0.1710   -0.1940 O.3       1 DL11        0.0000
      8 O13        -1.5040   -1.7100   -1.3700 O.2       1 DL11        0.0000
      9 O14        -1.4180   -1.6020    1.2240 O.3       1 DL11        0.0000
     10 O11        -2.6740    0.0920   -0.1060 O.3       1 DL11        0.0000
     11 C1A        -3.9440   -0.5670   -0.0240 C.3       1 DL11        0.0000
     12 H1A1       -3.9800   -1.2440    0.8630 H         1 DL11        0.0000
     13 H1A2       -4.1330   -1.1690   -0.9440 H         1 DL11        0.0000
     14 C1B        -5.0330    0.5060    0.1170 C.3       1 DL11        0.0000
     15 H1B1       -4.9300    1.1940   -0.7520 H         1 DL11        0.0000
     16 H1B2       -4.8160    1.0920    1.0360 H         1 DL11        0.0000
     17 C1C        -6.4830   -0.0340    0.1740 C.3       1 DL11        0.0000
     18 H1C        -6.6420   -0.6390   -0.7510 H         1 DL11        0.0000
     19 C1D        -6.7000   -0.9570    1.3900 C.3       1 DL11        0.0000
     20 H1D1       -6.5170   -0.3960    2.3310 H         1 DL11        0.0000
     21 H1D2       -5.9990   -1.8170    1.3600 H         1 DL11        0.0000
     22 H1D3       -7.7290   -1.3640    1.4090 H         1 DL11        0.0000
     23 C1E        -7.4930    1.1400    0.1530 C.3       1 DL11        0.0000
     24 H1E1       -7.1770    1.8430   -0.6500 H         1 DL11        0.0000
     25 H1E2       -7.4180    1.6770    1.1240 H         1 DL11        0.0000
     26 C2A        -8.9590    0.7240   -0.1030 C.3       1 DL11        0.0000
     27 H2A1       -9.2690    0.0070    0.6880 H         1 DL11        0.0000
     28 H2A2       -8.9940    0.1800   -1.0740 H         1 DL11        0.0000
     29 C2B        -9.8960    1.9090   -0.1330 C.2       1 DL11        0.0000
     30 H2B        -9.4110    2.8930   -0.2140 H         1 DL11        0.0000
     31 C2C       -11.2420    1.8530   -0.0760 C.2       1 DL11        0.0000
     32 C2D       -12.0430    3.1330   -0.0940 C.3       1 DL11        0.0000
     33 H2D1      -11.4090    4.0460   -0.1370 H         1 DL11        0.0000
     34 H2D2      -12.6730    3.2150    0.8170 H         1 DL11        0.0000
     35 H2D3      -12.7190    3.1630   -0.9750 H         1 DL11        0.0000
     36 C2E       -11.9480    0.5170   -0.0000 C.3       1 DL11        0.0000
     37 H2E1      -11.6500   -0.0010    0.9400 H         1 DL11        0.0000
     38 H2E2      -11.6050   -0.1220   -0.8470 H         1 DL11        0.0000
     39 C3A       -13.4990    0.5550   -0.0390 C.3       1 DL11        0.0000
     40 H3A1      -13.8250    1.0830   -0.9630 H         1 DL11        0.0000
     41 H3A2      -13.8660    1.1420    0.8330 H         1 DL11        0.0000
     42 C3B       -14.0920   -0.8340   -0.0130 C.2       1 DL11        0.0000
     43 H3B       -13.3660   -1.6600   -0.0110 H         1 DL11        0.0000
     44 C3C       -15.4070   -1.1240    0.0020 C.2       1 DL11        0.0000
     45 C3D       -15.8470   -2.5670    0.0180 C.3       1 DL11        0.0000
     46 H3D1      -14.9970   -3.2850    0.0190 H         1 DL11        0.0000
     47 H3D2      -16.4670   -2.7980   -0.8740 H         1 DL11        0.0000
     48 H3D3      -16.4580   -2.7830    0.9200 H         1 DL11        0.0000
     49 C3E       -16.4290   -0.0090   -0.0020 C.3       1 DL11        0.0000
     50 H3E1      -16.2670    0.6320   -0.8990 H         1 DL11        0.0000
     51 H3E2      -16.2670    0.6360    0.8920 H         1 DL11        0.0000
     52 C4A       -17.9170   -0.4460   -0.0010 C.3       1 DL11        0.0000
     53 H4A1      -18.1080   -1.0720    0.8990 H         1 DL11        0.0000
     54 H4A2      -18.1080   -1.0750   -0.8990 H         1 DL11        0.0000
     55 C4B       -18.8460    0.7440   -0.0020 C.2       1 DL11        0.0000
     56 H4B       -18.3570    1.7300   -0.0020 H         1 DL11        0.0000
     57 C4C       -20.1920    0.6870   -0.0010 C.2       1 DL11        0.0000
     58 C4D       -20.9870    1.9690   -0.0010 C.3       1 DL11        0.0000
     59 H4D1      -20.3490    2.8810   -0.0010 H         1 DL11        0.0000
     60 H4D2      -21.6380    2.0280    0.8970 H         1 DL11        0.0000
     61 H4D3      -21.6390    2.0280   -0.8980 H         1 DL11        0.0000
     62 C4E       -20.8940   -0.6530   -0.0000 C.3       1 DL11        0.0000
     63 H4E1      -20.5730   -1.2330    0.8950 H         1 DL11        0.0000
     64 H4E2      -20.5730   -1.2340   -0.8950 H         1 DL11        0.0000
     65 C5A       -22.4450   -0.6100   -0.0000 C.3       1 DL11        0.0000
     66 H5A1      -22.7880   -0.0510   -0.8990 H         1 DL11        0.0000
     67 H5A2      -22.7880   -0.0500    0.8990 H         1 DL11        0.0000
     68 C5B       -23.0480   -1.9950    0.0000 C.2       1 DL11        0.0000
     69 H5B       -22.3280   -2.8270    0.0000 H         1 DL11        0.0000
     70 C5C       -24.3650   -2.2750    0.0000 C.2       1 DL11        0.0000
     71 C5D       -24.8150   -3.7150    0.0000 C.3       1 DL11        0.0000
     72 H5D1      -23.9700   -4.4390    0.0000 H         1 DL11        0.0000
     73 H5D2      -25.4320   -3.9340   -0.8970 H         1 DL11        0.0000
     74 H5D3      -25.4320   -3.9340    0.8970 H         1 DL11        0.0000
     75 C5E       -25.3820   -1.1540   -0.0000 C.3       1 DL11        0.0000
     76 H5E1      -25.2170   -0.5120   -0.8960 H         1 DL11        0.0000
     77 H5E2      -25.2170   -0.5120    0.8950 H         1 DL11        0.0000
     78 C6A       -26.8730   -1.5840    0.0000 C.3       1 DL11        0.0000
     79 H6A1      -27.0660   -2.2110    0.8990 H         1 DL11        0.0000
     80 H6A2      -27.0660   -2.2110   -0.8990 H         1 DL11        0.0000
     81 C6B       -27.8020   -0.3930   -0.0000 C.2       1 DL11        0.0000
     82 H6B       -27.3140    0.5920   -0.0000 H         1 DL11        0.0000
     83 C6C       -29.1480   -0.4510   -0.0000 C.2       1 DL11        0.0000
     84 C6D       -29.9460    0.8290   -0.0000 C.3       1 DL11        0.0000
     85 H6D1      -29.3100    1.7430   -0.0000 H         1 DL11        0.0000
     86 H6D2      -30.5980    0.8860    0.8970 H         1 DL11        0.0000
     87 H6D3      -30.5980    0.8860   -0.8970 H         1 DL11        0.0000
     88 C6E       -29.8490   -1.7920    0.0000 C.3       1 DL11        0.0000
     89 H6E1      -29.5270   -2.3720    0.8960 H         1 DL11        0.0000
     90 H6E2      -29.5270   -2.3720   -0.8960 H         1 DL11        0.0000
     91 C7A       -31.3990   -1.7530   -0.0000 C.3       1 DL11        0.0000
     92 H7A1      -31.7450   -1.1950   -0.8990 H         1 DL11        0.0000
     93 H7A2      -31.7450   -1.1950    0.8990 H         1 DL11        0.0000
     94 C7B       -31.9930   -3.1420    0.0000 C.2       1 DL11        0.0000
     95 H7B       -31.2700   -3.9700    0.0000 H         1 DL11        0.0000
     96 C7C       -33.3090   -3.4270    0.0000 C.2       1 DL11        0.0000
     97 C7D       -33.7570   -4.8680    0.0000 C.3       1 DL11        0.0000
     98 H7D1      -32.9110   -5.5900    0.0000 H         1 DL11        0.0000
     99 H7D2      -34.3740   -5.0890   -0.8970 H         1 DL11        0.0000
    100 H7D3      -34.3740   -5.0890    0.8970 H         1 DL11        0.0000
    101 C7E       -34.3250   -2.3060    0.0000 C.3       1 DL11        0.0000
    102 H7E1      -34.1590   -1.6640   -0.8960 H         1 DL11        0.0000
    103 H7E2      -34.1590   -1.6640    0.8960 H         1 DL11        0.0000
    104 C8A       -35.8140   -2.7340   -0.0000 C.3       1 DL11        0.0000
    105 H8A1      -36.0090   -3.3610    0.8990 H         1 DL11        0.0000
    106 H8A2      -36.0090   -3.3610   -0.8990 H         1 DL11        0.0000
    107 C8B       -36.7370   -1.5380   -0.0000 C.2       1 DL11        0.0000
    108 H8B       -36.2440   -0.5550   -0.0000 H         1 DL11        0.0000
    109 C8C       -38.0820   -1.5930   -0.0000 C.2       1 DL11        0.0000
    110 C8D       -38.8780   -0.3110   -0.0000 C.3       1 DL11        0.0000
    111 H8D1      -38.2400    0.6010    0.0000 H         1 DL11        0.0000
    112 H8D2      -39.5300   -0.2530    0.8970 H         1 DL11        0.0000
    113 H8D3      -39.5300   -0.2530   -0.8970 H         1 DL11        0.0000
    114 C8E       -38.7810   -2.9340   -0.0000 C.3       1 DL11        0.0000
    115 H8E1      -38.4590   -3.5140    0.8960 H         1 DL11        0.0000
    116 H8E2      -38.4590   -3.5140   -0.8960 H         1 DL11        0.0000
    117 C9A       -40.3300   -2.8960    0.0000 C.3       1 DL11        0.0000
    118 H9A1      -40.6770   -2.3380   -0.8990 H         1 DL11        0.0000
    119 H9A2      -40.6770   -2.3380    0.8990 H         1 DL11        0.0000
    120 C9B       -40.9210   -4.2850    0.0000 C.2       1 DL11        0.0000
    121 H9B       -40.1960   -5.1130    0.0000 H         1 DL11        0.0000
    122 C9C       -42.2360   -4.5720   -0.0000 C.2       1 DL11        0.0000
    123 C9D       -42.6830   -6.0130   -0.0000 C.3       1 DL11        0.0000
    124 H9D1      -41.8360   -6.7340   -0.0000 H         1 DL11        0.0000
    125 H9D2      -43.2990   -6.2340   -0.8970 H         1 DL11        0.0000
    126 H9D3      -43.2990   -6.2340    0.8970 H         1 DL11        0.0000
    127 C9E       -43.2510   -3.4500   -0.0000 C.3       1 DL11        0.0000
    128 H9E1      -43.0850   -2.8080   -0.8960 H         1 DL11        0.0000
    129 H9E2      -43.0850   -2.8080    0.8960 H         1 DL11        0.0000
    130 C10A      -44.7400   -3.8770   -0.0000 C.3       1 DL11        0.0000
    131 H10A      -44.9340   -4.5040    0.8990 H         1 DL11        0.0000
    132 H10A      -44.9340   -4.5040   -0.8990 H         1 DL11        0.0000
    133 C10B      -45.6610   -2.6810    0.0000 C.2       1 DL11        0.0000
    134 H10B      -45.1680   -1.6980    0.0000 H         1 DL11        0.0000
    135 C10C      -47.0060   -2.7360    0.0000 C.2       1 DL11        0.0000
    136 C10D      -47.8020   -1.4540    0.0000 C.3       1 DL11        0.0000
    137 H10D      -47.1640   -0.5420    0.0000 H         1 DL11        0.0000
    138 H10D      -48.4540   -1.3960    0.8970 H         1 DL11        0.0000
    139 H10D      -48.4540   -1.3960   -0.8970 H         1 DL11        0.0000
    140 C10E      -47.7040   -4.0770    0.0000 C.3       1 DL11        0.0000
    141 H10E      -47.3810   -4.6570    0.8960 H         1 DL11        0.0000
    142 H10E      -47.3810   -4.6570   -0.8960 H         1 DL11        0.0000
    143 C11A      -49.2520   -4.0390   -0.0000 C.3       1 DL11        0.0000
    144 H11A      -49.5990   -3.4820   -0.8990 H         1 DL11        0.0000
    145 H11A      -49.5990   -3.4820    0.8990 H         1 DL11        0.0000
    146 C11B      -49.8410   -5.4300   -0.0000 C.2       1 DL11        0.0000
    147 H11B      -49.1160   -6.2570   -0.0000 H         1 DL11        0.0000
    148 C11C      -51.1560   -5.7150   -0.0000 C.2       1 DL11        0.0000
    149 C11D      -51.6050   -7.1560   -0.0000 C.3       1 DL11        0.0000
    150 H11D      -50.7590   -7.8780   -0.0000 H         1 DL11        0.0000
    151 H11D      -52.2220   -7.3760   -0.8970 H         1 DL11        0.0000
    152 H11D      -52.2220   -7.3760    0.8970 H         1 DL11        0.0000
    153 C11E      -52.1680   -4.5910   -0.0000 C.3       1 DL11        0.0000
    154 H11E      -52.0010   -3.9490   -0.8960 H         1 DL11        0.0000
    155 H11E      -52.0010   -3.9490    0.8960 H         1 DL11        0.0000
    156 C12A      -53.6560   -5.0170    0.0000 C.3       1 DL11        0.0000
    157 H12A      -53.8520   -5.6430    0.9000 H         1 DL11        0.0000
    158 H12A      -53.8520   -5.6430   -0.9000 H         1 DL11        0.0000
    159 C12B      -54.5750   -3.8180    0.0000 C.2       1 DL11        0.0000
    160 H12B      -54.0820   -2.8350    0.0000 H         1 DL11        0.0000
    161 C12C      -55.9190   -3.8760    0.0000 C.2       1 DL11        0.0000
    162 C12D      -56.7200   -2.5970    0.0000 C.3       1 DL11        0.0000
    163 H12D      -56.0860   -1.6830    0.0000 H         1 DL11        0.0000
    164 H12D      -57.3730   -2.5420    0.8970 H         1 DL11        0.0000
    165 H12D      -57.3730   -2.5420   -0.8970 H         1 DL11        0.0000
    166 C12E      -56.6090   -5.2210    0.0000 C.3       1 DL11        0.0000
    167 H12E      -56.2850   -5.7990    0.8960 H         1 DL11        0.0000
    168 H12E      -56.2850   -5.7990   -0.8960 H         1 DL11        0.0000
    169 C13A      -58.1560   -5.1870   -0.0000 C.3       1 DL11        0.0000
    170 H13A      -58.5040   -4.6300   -0.9000 H         1 DL11        0.0000
    171 H13A      -58.5040   -4.6300    0.9000 H         1 DL11        0.0000
    172 C13B      -58.7420   -6.5770   -0.0000 C.2       1 DL11        0.0000
    173 H13B      -58.0180   -7.4060   -0.0000 H         1 DL11        0.0000
    174 C13C      -60.0580   -6.8570   -0.0000 C.2       1 DL11        0.0000
    175 C13D      -60.5160   -8.2950   -0.0000 C.3       1 DL11        0.0000
    176 H13D      -59.6750   -9.0230   -0.0000 H         1 DL11        0.0000
    177 H13D      -61.1340   -8.5100   -0.8970 H         1 DL11        0.0000
    178 H13D      -61.1340   -8.5100    0.8970 H         1 DL11        0.0000
    179 C13E      -61.0600   -5.7250   -0.0000 C.3       1 DL11        0.0000
    180 H13E      -60.8900   -5.0840   -0.8960 H         1 DL11        0.0000
    181 H13E      -60.8900   -5.0840    0.8960 H         1 DL11        0.0000
    182 C14A      -62.5490   -6.1460    0.0000 C.3       1 DL11        0.0000
    183 H14A      -62.7450   -6.7720    0.9000 H         1 DL11        0.0000
    184 H14A      -62.7450   -6.7720   -0.9000 H         1 DL11        0.0000
    185 C14B      -63.4690   -4.9490    0.0000 C.2       1 DL11        0.0000
    186 H14B      -62.9800   -3.9640   -0.0000 H         1 DL11        0.0000
    187 C14C      -64.8130   -5.0140    0.0000 C.2       1 DL11        0.0000
    188 C14D      -65.6220   -3.7410    0.0000 C.3       1 DL11        0.0000
    189 H14D      -64.9940   -2.8220    0.0000 H         1 DL11        0.0000
    190 H14D      -66.2740   -3.6900    0.8970 H         1 DL11        0.0000
    191 H14D      -66.2740   -3.6900   -0.8970 H         1 DL11        0.0000
    192 C14E      -65.4950   -6.3640    0.0000 C.3       1 DL11        0.0000
    193 H14E      -65.1650   -6.9400    0.8960 H         1 DL11        0.0000
    194 H14E      -65.1650   -6.9400   -0.8960 H         1 DL11        0.0000
    195 C15A      -67.0430   -6.3440   -0.0000 C.3       1 DL11        0.0000
    196 H15A      -67.3950   -5.7900   -0.9000 H         1 DL11        0.0000
    197 H15A      -67.3950   -5.7900    0.9000 H         1 DL11        0.0000
    198 C15B      -67.6200   -7.7390   -0.0000 C.2       1 DL11        0.0000
    199 H15B      -66.8870   -8.5600   -0.0000 H         1 DL11        0.0000
    200 C15C      -68.9320   -8.0380   -0.0000 C.2       1 DL11        0.0000
    201 C15D      -69.3680   -9.4810    0.0000 C.3       1 DL11        0.0000
    202 H15D      -68.5160  -10.1960   -0.0000 H         1 DL11        0.0000
    203 H15D      -69.9830   -9.7050   -0.8970 H         1 DL11        0.0000
    204 H15D      -69.9830   -9.7050    0.8970 H         1 DL11        0.0000
    205 C15E      -69.9570   -6.9260    0.0000 C.3       1 DL11        0.0000
    206 H15E      -69.7940   -6.2820   -0.8960 H         1 DL11        0.0000
    207 H15E      -69.7940   -6.2820    0.8960 H         1 DL11        0.0000
    208 C16A      -71.4450   -7.3610   -0.0000 C.3       1 DL11        0.0000
    209 H16A      -71.6400   -7.9870    0.9000 H         1 DL11        0.0000
    210 H16A      -71.6400   -7.9870   -0.9000 H         1 DL11        0.0000
    211 C16B      -72.3590   -6.1610   -0.0000 C.2       1 DL11        0.0000
    212 H16B      -71.8530   -5.1840   -0.0000 H         1 DL11        0.0000
    213 C16C      -73.7050   -6.1880    0.0000 C.2       1 DL11        0.0000
    214 C16D      -74.4570   -4.8790    0.0000 C.3       1 DL11        0.0000
    215 H16D      -73.7910   -3.9880    0.0000 H         1 DL11        0.0000
    216 H16D      -75.1070   -4.7970    0.8970 H         1 DL11        0.0000
    217 H16D      -75.1070   -4.7970   -0.8970 H         1 DL11        0.0000
    218 C16E      -74.4520   -7.5060   -0.0000 C.3       1 DL11        0.0000
    219 H16E      -74.1570   -8.0980    0.8960 H         1 DL11        0.0000
    220 H16E      -74.1570   -8.0980   -0.8960 H         1 DL11        0.0000
    221 C17A      -75.9980   -7.3860   -0.0000 C.3       1 DL11        0.0000
    222 H17A      -76.3030   -6.8040   -0.8990 H         1 DL11        0.0000
    223 H17A      -76.3030   -6.8040    0.8990 H         1 DL11        0.0000
    224 C17B      -76.7200   -8.7140   -0.0000 C.2       1 DL11        0.0000
    225 H17B      -76.0790   -9.6080   -0.0000 H         1 DL11        0.0000
    226 C17C      -78.0600   -8.8700   -0.0000 C.2       1 DL11        0.0000
    227 C17D      -78.9790   -7.6670    0.0000 C.3       1 DL11        0.0000
    228 H17D      -78.4560   -6.6880   -0.0000 H         1 DL11        0.0000
    229 H17D      -79.6340   -7.6730    0.8970 H         1 DL11        0.0000
    230 H17D      -79.6340   -7.6730   -0.8970 H         1 DL11        0.0000
    231 C17E      -78.6560  -10.2660   -0.0000 C.3       1 DL11        0.0000
    232 H17E      -78.3070  -10.8270    0.8970 H         1 DL11        0.0000
    233 H17E      -78.3070  -10.8270   -0.8970 H         1 DL11        0.0000
    234 C18A      -80.2080  -10.2770    0.0000 C.3       1 DL11        0.0000
    235 H18A      -80.5460   -9.7140   -0.9010 H         1 DL11        0.0000
    236 H18A      -80.5460   -9.7140    0.9010 H         1 DL11        0.0000
    237 C18B      -80.9080  -11.6160    0.0000 C.2       1 DL11        0.0000
    238 H18B      -80.2660  -12.5090    0.0000 H         1 DL11        0.0000
    239 C18C      -82.2520  -11.7590    0.0000 C.2       1 DL11        0.0000
    240 C18D      -83.1590  -10.5460    0.0000 C.3       1 DL11        0.0000
    241 H18D      -82.6300   -9.5700    0.0000 H         1 DL11        0.0000
    242 H18D      -83.8130  -10.5470    0.8980 H         1 DL11        0.0000
    243 H18D      -83.8130  -10.5470   -0.8980 H         1 DL11        0.0000
    244 C18E      -82.8780  -13.1380    0.0000 C.3       1 DL11        0.0000
    245 H18E      -82.5360  -13.7040    0.8960 H         1 DL11        0.0000
    246 H18E      -82.5360  -13.7040   -0.8960 H         1 DL11        0.0000
    247 C19A      -84.4320  -13.1360   -0.0000 C.3       1 DL11        0.0000
    248 H19A      -84.7830  -12.5800   -0.8990 H         1 DL11        0.0000
    249 H19A      -84.7830  -12.5800    0.8990 H         1 DL11        0.0000
    250 C19B      -85.0670  -14.5050   -0.0000 C.2       1 DL11        0.0000
    251 H19B      -84.3680  -15.3540   -0.0000 H         1 DL11        0.0000
    252 C19C      -86.3920  -14.7510   -0.0000 C.2       1 DL11        0.0000
    253 C19D      -86.9050  -16.1650   -0.0000 C.3       1 DL11        0.0000
    254 H19D      -86.0950  -16.9260   -0.0000 H         1 DL11        0.0000
    255 H19D      -87.5360  -16.3490   -0.8960 H         1 DL11        0.0000
    256 H19D      -87.5360  -16.3490    0.8960 H         1 DL11        0.0000
    257 C19E      -87.4260  -13.6520   -0.0000 C.3       1 DL11        0.0000
    258 H19E      -86.9950  -12.6280   -0.0000 H         1 DL11        0.0000
    259 H19E      -88.0780  -13.7320    0.8960 H         1 DL11        0.0000
    260 H19E      -88.0780  -13.7320   -0.8960 H         1 DL11        0.0000
@<TRIPOS>BOND
     1    8    6 2 
     2    5    1 2 
     3   28   26 1 
     4   35   32 1 
     5   40   39 1 
     6   13   11 1 
     7  235  234 1 
     8  158  156 1 
     9  196  195 1 
    10  210  208 1 
    11  184  182 1 
    12  170  169 1 
    13   66   65 1 
    14  106  104 1 
    15   54   52 1 
    16   50   49 1 
    17  222  221 1 
    18  248  247 1 
    19  118  117 1 
    20  132  130 1 
    21   80   78 1 
    22   92   91 1 
    23  144  143 1 
    24   61   58 1 
    25  243  240 1 
    26  191  188 1 
    27  203  201 1 
    28  113  110 1 
    29   73   71 1 
    30  165  162 1 
    31  151  149 1 
    32  125  123 1 
    33  177  175 1 
    34   87   84 1 
    35  139  136 1 
    36   99   97 1 
    37  233  231 1 
    38  230  227 1 
    39  217  214 1 
    40  194  192 1 
    41   90   88 1 
    42  168  166 1 
    43  255  253 1 
    44   76   75 1 
    45  246  244 1 
    46  116  114 1 
    47  142  140 1 
    48  102  101 1 
    49  260  257 1 
    50  220  218 1 
    51  128  127 1 
    52  180  179 1 
    53  206  205 1 
    54  154  153 1 
    55   64   62 1 
    56   47   45 1 
    57   38   36 1 
    58   15   14 1 
    59   18   17 1 
    60   24   23 1 
    61   30   29 1 
    62    7    6 1 
    63    7    1 1 
    64   33   32 1 
    65   29   26 1 
    66   29   31 2 
    67    6   10 1 
    68    6    9 1 
    69    1    2 1 
    70    1    4 1 
    71   10   11 1 
    72   26   23 1 
    73   26   27 1 
    74   32   31 1 
    75   32   34 1 
    76   31   36 1 
    77   39   42 1 
    78   39   36 1 
    79   39   41 1 
    80   11   14 1 
    81   11   12 1 
    82   42   43 1 
    83   42   44 2 
    84    2    3 1 
    85   56   55 1 
    86   49   52 1 
    87   49   44 1 
    88   49   51 1 
    89   55   57 2 
    90   55   52 1 
    91   57   58 1 
    92   57   62 1 
    93   58   59 1 
    94   58   60 1 
    95   52   53 1 
    96  109  107 2 
    97  109  114 1 
    98  109  110 1 
    99  205  208 1 
   100  205  200 1 
   101  205  207 1 
   102  108  107 1 
   103  208  211 1 
   104  208  209 1 
   105  107  104 1 
   106  211  212 1 
   107  211  213 2 
   108  213  214 1 
   109  213  218 1 
   110  214  215 1 
   111  214  216 1 
   112  218  221 1 
   113  218  219 1 
   114  104  101 1 
   115  104  105 1 
   116  221  224 1 
   117  221  223 1 
   118  224  225 1 
   119  224  226 2 
   120   36   37 1 
   121  226  227 1 
   122  226  231 1 
   123   71   70 1 
   124   71   72 1 
   125   71   74 1 
   126  227  228 1 
   127  227  229 1 
   128  163  162 1 
   129  101   96 1 
   130  101  103 1 
   131  231  234 1 
   132  231  232 1 
   133  234  237 1 
   134  234  236 1 
   135   98   97 1 
   136   62   65 1 
   137   62   63 1 
   138  237  238 1 
   139  237  239 2 
   140   65   68 1 
   141   65   67 1 
   142   68   69 1 
   143   68   70 2 
   144   70   75 1 
   145  239  240 1 
   146  239  244 1 
   147  240  241 1 
   148  240  242 1 
   149   75   78 1 
   150   75   77 1 
   151   78   81 1 
   152   78   79 1 
   153   97   96 1 
   154   97  100 1 
   155   81   82 1 
   156   81   83 2 
   157   83   84 1 
   158   83   88 1 
   159   84   85 1 
   160   84   86 1 
   161  244  247 1 
   162  244  245 1 
   163   88   91 1 
   164   88   89 1 
   165   96   94 2 
   166   91   94 1 
   167   91   93 1 
   168  247  250 1 
   169  247  249 1 
   170  130  133 1 
   171  130  127 1 
   172  130  131 1 
   173  133  134 1 
   174  133  135 2 
   175  135  136 1 
   176  135  140 1 
   177  136  137 1 
   178  136  138 1 
   179   95   94 1 
   180  250  251 1 
   181  250  252 2 
   182  140  143 1 
   183  140  141 1 
   184  127  122 1 
   185  127  129 1 
   186  143  146 1 
   187  143  145 1 
   188  252  253 1 
   189  252  257 1 
   190  253  254 1 
   191  253  256 1 
   192  146  147 1 
   193  146  148 2 
   194  148  149 1 
   195  148  153 1 
   196  149  150 1 
   197  149  152 1 
   198  124  123 1 
   199  153  156 1 
   200  153  155 1 
   201  123  122 1 
   202  123  126 1 
   203  156  159 1 
   204  156  157 1 
   205  257  258 1 
   206  257  259 1 
   207  122  120 2 
   208  159  160 1 
   209  159  161 2 
   210  161  162 1 
   211  161  166 1 
   212  162  164 1 
   213  188  187 1 
   214  188  189 1 
   215  188  190 1 
   216  121  120 1 
   217  166  169 1 
   218  166  167 1 
   219  120  117 1 
   220  169  172 1 
   221  169  171 1 
   222  172  173 1 
   223  172  174 2 
   224  174  175 1 
   225  174  179 1 
   226  175  176 1 
   227  175  178 1 
   228  117  114 1 
   229  117  119 1 
   230  179  182 1 
   231  179  181 1 
   232  182  185 1 
   233  182  183 1 
   234  114  115 1 
   235  185  186 1 
   236  185  187 2 
   237  187  192 1 
   238  192  195 1 
   239  192  193 1 
   240  111  110 1 
   241  195  198 1 
   242  195  197 1 
   243  110  112 1 
   244  198  199 1 
   245  198  200 2 
   246  200  201 1 
   247  201  202 1 
   248  201  204 1 
   249   44   45 1 
   250   45   46 1 
   251   45   48 1 
   252   14   17 1 
   253   14   16 1 
   254   23   17 1 
   255   23   25 1 
   256   17   19 1 
   257   21   19 1 
   258   19   22 1 
   259   19   20 1 
