@<TRIPOS>MOLECULE
C:\Users\Praveer\PycharmProjects\pdb_to_mol2_converter\data\pdb\dlpa.pdb
   88    87     0     0     0
SMALL
GASTEIGER

@<TRIPOS>ATOM
      1 P           1.5910    0.0570   -0.0410 P.3       1 DLP1        0.0000
      2 O13         2.1210   -0.4780    1.2240 O.3       1 DLP1        0.0000
      3 O14         2.1470   -0.4550   -1.3050 O.2       1 DLP1        0.0000
      4 O12         2.0180    1.5640   -0.0210 O.3       1 DLP1        0.0000
      5 H12         2.9770    1.5690   -0.0010 H         1 DLP1        0.0000
      6 O11         0.0110    0.0270   -0.0600 O.3       1 DLP1        0.0000
      7 C1         -0.6150   -1.2620   -0.0640 C.3       1 DLP1        0.0000
      8 HA         -0.2880   -1.8700    0.8130 H         1 DLP1        0.0000
      9 HB         -0.3570   -1.8120   -0.9990 H         1 DLP1        0.0000
     10 C2         -2.1590   -1.1270    0.0100 C.3       1 DLP1        0.0000
     11 HS         -2.4640   -0.4920   -0.8560 H         1 DLP1        0.0000
     12 O21        -2.4970   -0.5020    1.2630 O.3       1 DLP1        0.0000
     13 C21        -3.6870    0.0580    1.3060 C.2       1 DLP1        0.0000
     14 O22        -4.5260    0.0310    0.4230 O.2       1 DLP1        0.0000
     15 C22        -3.8580    0.7590    2.6560 C.3       1 DLP1        0.0000
     16 H2R        -3.5320    1.8120    2.5300 H         1 DLP1        0.0000
     17 H2S        -3.1890    0.2710    3.3960 H         1 DLP1        0.0000
     18 C3         -2.8540   -2.5110   -0.1150 C.3       1 DLP1        0.0000
     19 HX         -3.9570   -2.3760   -0.1350 H         1 DLP1        0.0000
     20 HY         -2.5800   -3.0790    0.8070 H         1 DLP1        0.0000
     21 O31        -2.4160   -3.1870   -1.3140 O.3       1 DLP1        0.0000
     22 C31        -2.6050   -4.5000   -1.2980 C.2       1 DLP1        0.0000
     23 O32        -3.1410   -5.1280   -0.4040 O.2       1 DLP1        0.0000
     24 C32        -2.0290   -5.1160   -2.5720 C.3       1 DLP1        0.0000
     25 H2X        -1.9850   -6.2140   -2.4220 H         1 DLP1        0.0000
     26 H2Y        -0.9950   -4.7310   -2.6980 H         1 DLP1        0.0000
     27 C23        -5.3180    0.7090    3.1590 C.3       1 DLP1        0.0000
     28 H3R        -5.6430   -0.3540    3.2170 H         1 DLP1        0.0000
     29 H3S        -5.9850    1.2270    2.4330 H         1 DLP1        0.0000
     30 C24        -5.4760    1.3620    4.5410 C.3       1 DLP1        0.0000
     31 H4R        -5.1300    2.4190    4.4750 H         1 DLP1        0.0000
     32 H4S        -4.8170    0.8380    5.2690 H         1 DLP1        0.0000
     33 C25        -6.9190    1.3490    5.0740 C.3       1 DLP1        0.0000
     34 H5R        -7.5820    1.8700    4.3480 H         1 DLP1        0.0000
     35 H5S        -6.9510    1.9180    6.0300 H         1 DLP1        0.0000
     36 C26        -7.4620   -0.0650    5.3280 C.3       1 DLP1        0.0000
     37 H6R        -6.7700   -0.6050    6.0120 H         1 DLP1        0.0000
     38 H6S        -7.4830   -0.6190    4.3670 H         1 DLP1        0.0000
     39 C27        -8.8710   -0.0650    5.9420 C.3       1 DLP1        0.0000
     40 H7R        -9.5700    0.5130    5.3000 H         1 DLP1        0.0000
     41 H7S        -8.8050    0.4610    6.9220 H         1 DLP1        0.0000
     42 C28        -9.4410   -1.4750    6.1870 C.3       1 DLP1        0.0000
     43 H8R       -10.0810   -1.4250    7.0990 H         1 DLP1        0.0000
     44 H8S        -8.6170   -2.1850    6.4080 H         1 DLP1        0.0000
     45 C29       -10.3320   -2.0170    5.0510 C.3       1 DLP1        0.0000
     46 H9R       -11.1690   -1.3000    4.8920 H         1 DLP1        0.0000
     47 H9S       -10.7850   -2.9770    5.3870 H         1 DLP1        0.0000
     48 C210       -9.6310   -2.2500    3.7000 C.3       1 DLP1        0.0000
     49 H10R       -9.2530   -1.2770    3.3160 H         1 DLP1        0.0000
     50 H10S      -10.3890   -2.6130    2.9690 H         1 DLP1        0.0000
     51 C211       -8.4760   -3.2670    3.7320 C.3       1 DLP1        0.0000
     52 H11R       -7.6860   -2.9080    4.4290 H         1 DLP1        0.0000
     53 H11S       -8.0200   -3.3020    2.7160 H         1 DLP1        0.0000
     54 C212       -8.8920   -4.6840    4.1350 C.3       1 DLP1        0.0000
     55 H12R       -9.7180   -5.0450    3.4840 H         1 DLP1        0.0000
     56 H12S       -9.2400   -4.7060    5.1900 H         1 DLP1        0.0000
     57 H12T       -8.0350   -5.3840    4.0350 H         1 DLP1        0.0000
     58 C33        -2.8740   -4.7810   -3.8210 C.3       1 DLP1        0.0000
     59 H3X        -2.3640   -5.2040   -4.7180 H         1 DLP1        0.0000
     60 H3Y        -2.9300   -3.6770   -3.9600 H         1 DLP1        0.0000
     61 C34        -4.2910   -5.3640   -3.7430 C.3       1 DLP1        0.0000
     62 H4X        -4.8210   -4.8960   -2.8840 H         1 DLP1        0.0000
     63 H4Y        -4.2330   -6.4560   -3.5380 H         1 DLP1        0.0000
     64 C35        -5.1110   -5.1440   -5.0240 C.3       1 DLP1        0.0000
     65 H5X        -4.6540   -5.7480   -5.8410 H         1 DLP1        0.0000
     66 H5Y        -5.0640   -4.0740   -5.3270 H         1 DLP1        0.0000
     67 C36        -6.5820   -5.5530   -4.8520 C.3       1 DLP1        0.0000
     68 H6X        -6.6150   -6.5290   -4.3180 H         1 DLP1        0.0000
     69 H6Y        -7.0540   -5.6990   -5.8490 H         1 DLP1        0.0000
     70 C37        -7.4010   -4.5120   -4.0710 C.3       1 DLP1        0.0000
     71 H7X        -7.6620   -3.6660   -4.7440 H         1 DLP1        0.0000
     72 H7Y        -6.7710   -4.1000   -3.2540 H         1 DLP1        0.0000
     73 C38        -8.6750   -5.0980   -3.4460 C.3       1 DLP1        0.0000
     74 H8X        -8.3830   -5.9110   -2.7440 H         1 DLP1        0.0000
     75 H8Y        -9.2950   -5.5580   -4.2480 H         1 DLP1        0.0000
     76 C39        -9.5290   -4.0660   -2.6860 C.3       1 DLP1        0.0000
     77 H9X       -10.3830   -4.5950   -2.2090 H         1 DLP1        0.0000
     78 H9Y        -9.9550   -3.3500   -3.4250 H         1 DLP1        0.0000
     79 C310       -8.7780   -3.2530   -1.6120 C.3       1 DLP1        0.0000
     80 H10X       -9.5080   -2.5810   -1.1060 H         1 DLP1        0.0000
     81 H10Y       -8.0280   -2.5990   -2.1130 H         1 DLP1        0.0000
     82 C311       -8.0580   -4.0860   -0.5370 C.3       1 DLP1        0.0000
     83 H11X       -7.5370   -3.3830    0.1530 H         1 DLP1        0.0000
     84 H11Y       -7.2700   -4.7070   -1.0200 H         1 DLP1        0.0000
     85 C312       -8.9770   -4.9940    0.2860 C.3       1 DLP1        0.0000
     86 H12X       -9.4520   -5.7620   -0.3610 H         1 DLP1        0.0000
     87 H12Y       -9.7770   -4.3970    0.7730 H         1 DLP1        0.0000
     88 H12Z       -8.3960   -5.5150    1.0780 H         1 DLP1        0.0000
@<TRIPOS>BOND
     1   69   67 1 
     2   65   64 1 
     3   66   64 1 
     4   64   67 1 
     5   64   61 1 
     6   67   68 1 
     7   67   70 1 
     8   71   70 1 
     9   59   58 1 
    10   75   73 1 
    11   70   73 1 
    12   70   72 1 
    13   60   58 1 
    14   58   61 1 
    15   58   24 1 
    16   61   63 1 
    17   61   62 1 
    18   73   74 1 
    19   73   76 1 
    20   78   76 1 
    21   26   24 1 
    22   76   77 1 
    23   76   79 1 
    24   24   25 1 
    25   24   22 1 
    26   81   79 1 
    27   79   80 1 
    28   79   82 1 
    29   21   22 1 
    30   21   18 1 
    31    3    1 2 
    32   22   23 2 
    33   84   82 1 
    34    9    7 1 
    35   11   10 1 
    36   82   83 1 
    37   82   85 1 
    38   86   85 1 
    39   19   18 1 
    40   18   10 1 
    41   18   20 1 
    42    7    6 1 
    43    7   10 1 
    44    7    8 1 
    45    6    1 1 
    46    1    4 1 
    47    1    2 1 
    48    4    5 1 
    49   10   12 1 
    50   85   87 1 
    51   85   88 1 
    52   14   13 2 
    53   12   13 1 
    54   13   15 1 
    55   29   27 1 
    56   16   15 1 
    57   15   27 1 
    58   15   17 1 
    59   53   51 1 
    60   50   48 1 
    61   27   28 1 
    62   27   30 1 
    63   49   48 1 
    64   55   54 1 
    65   48   51 1 
    66   48   45 1 
    67   51   54 1 
    68   51   52 1 
    69   57   54 1 
    70   54   56 1 
    71   34   33 1 
    72   38   36 1 
    73   31   30 1 
    74   30   33 1 
    75   30   32 1 
    76   46   45 1 
    77   45   47 1 
    78   45   42 1 
    79   33   36 1 
    80   33   35 1 
    81   40   39 1 
    82   36   39 1 
    83   36   37 1 
    84   39   42 1 
    85   39   41 1 
    86   42   44 1 
    87   42   43 1 
