@<TRIPOS>MOLECULE
C:\Users\Praveer\PycharmProjects\pdb_to_mol2_converter\data\pdb\dlpc.pdb
  106   105     0     0     0
SMALL
GASTEIGER

@<TRIPOS>ATOM
      1 N           1.4780   -0.0040    0.0010 N.4       1 DLP1        0.0000
      2 C13        -0.0200    0.0060   -0.0030 C.3       1 DLP1        0.0000
      3 H13A       -0.4070    0.4930    0.8830 H         1 DLP1        0.0000
      4 H13B       -0.3990   -1.0100   -0.0160 H         1 DLP1        0.0000
      5 H13C       -0.4020    0.5150   -0.8780 H         1 DLP1        0.0000
      6 C14         1.9680   -0.7350    1.2170 C.3       1 DLP1        0.0000
      7 H14A        1.6620   -1.7700    1.2180 H         1 DLP1        0.0000
      8 H14B        1.6580   -0.2580    2.1330 H         1 DLP1        0.0000
      9 H14C        3.0660   -0.7380    1.2260 H         1 DLP1        0.0000
     10 C15         1.9610   -0.7430   -1.2160 C.3       1 DLP1        0.0000
     11 H15A        1.6290   -0.2860   -2.1350 H         1 DLP1        0.0000
     12 H15B        1.6750   -1.7840   -1.2010 H         1 DLP1        0.0000
     13 H15C        3.0560   -0.7310   -1.2490 H         1 DLP1        0.0000
     14 C12         2.0370    1.4180   -0.0020 C.3       1 DLP1        0.0000
     15 H12A        1.4790    2.0140    0.7070 H         1 DLP1        0.0000
     16 H12B        1.8800    1.8420   -0.9870 H         1 DLP1        0.0000
     17 C11         3.5420    1.6370    0.3190 C.3       1 DLP1        0.0000
     18 H11A        3.7510    1.3710    1.3820 H         1 DLP1        0.0000
     19 H11B        3.7570    2.7260    0.2330 H         1 DLP1        0.0000
     20 P           5.2860   -0.2770   -0.2130 P.3       1 DLP1        0.0000
     21 O13         5.0230   -1.3150   -1.2330 O.2       1 DLP1        0.0000
     22 O14         5.0010   -0.6430    1.1910 O.3       1 DLP1        0.0000
     23 O11         6.7420    0.3110   -0.3540 O.3       1 DLP1        0.0000
     24 O12         4.3710    0.9560   -0.6120 O.3       1 DLP1        0.0000
     25 C1          7.1870    0.8870   -1.5860 C.3       1 DLP1        0.0000
     26 HA          8.0440    1.5580   -1.3580 H         1 DLP1        0.0000
     27 HB          6.4020    1.5120   -2.0700 H         1 DLP1        0.0000
     28 C2          7.7000   -0.1800   -2.5960 C.3       1 DLP1        0.0000
     29 HS          6.8080   -0.7550   -2.9420 H         1 DLP1        0.0000
     30 O21         8.6300   -1.0360   -1.9070 O.3       1 DLP1        0.0000
     31 C21         8.8200   -2.2160   -2.4640 C.2       1 DLP1        0.0000
     32 O22         8.3810   -2.5790   -3.5410 O.2       1 DLP1        0.0000
     33 C22         9.7020   -3.0690   -1.5510 C.3       1 DLP1        0.0000
     34 H2R         9.1190   -3.9690   -1.2690 H         1 DLP1        0.0000
     35 H2S         9.9300   -2.4950   -0.6290 H         1 DLP1        0.0000
     36 C3          8.3690    0.4870   -3.8290 C.3       1 DLP1        0.0000
     37 HX          8.6480   -0.2930   -4.5710 H         1 DLP1        0.0000
     38 HY          9.3040    0.9690   -3.4520 H         1 DLP1        0.0000
     39 O31         7.4690    1.4430   -4.4300 O.3       1 DLP1        0.0000
     40 C31         8.0640    2.3650   -5.1770 C.2       1 DLP1        0.0000
     41 O32         9.2610    2.4550   -5.3740 O.2       1 DLP1        0.0000
     42 C32         7.0100    3.3190   -5.7360 C.3       1 DLP1        0.0000
     43 H2X         7.5330    4.2100   -6.1400 H         1 DLP1        0.0000
     44 H2Y         6.3640    3.6360   -4.8920 H         1 DLP1        0.0000
     45 C23        11.0140   -3.4820   -2.2520 C.3       1 DLP1        0.0000
     46 H3R        11.5180   -2.5660   -2.6360 H         1 DLP1        0.0000
     47 H3S        10.7830   -4.1340   -3.1250 H         1 DLP1        0.0000
     48 C24        11.9780   -4.2190   -1.3110 C.3       1 DLP1        0.0000
     49 H4R        11.4500   -5.0940   -0.8690 H         1 DLP1        0.0000
     50 H4S        12.2570   -3.5380   -0.4750 H         1 DLP1        0.0000
     51 C25        13.2590   -4.7140   -2.0030 C.3       1 DLP1        0.0000
     52 H5R        12.9820   -5.4570   -2.7850 H         1 DLP1        0.0000
     53 H5S        13.8960   -5.2350   -1.2540 H         1 DLP1        0.0000
     54 C26        14.0770   -3.5910   -2.6580 C.3       1 DLP1        0.0000
     55 H6R        14.3270   -2.8210   -1.8940 H         1 DLP1        0.0000
     56 H6S        13.4540   -3.1020   -3.4350 H         1 DLP1        0.0000
     57 C27        15.3740   -4.0920   -3.3120 C.3       1 DLP1        0.0000
     58 H7R        15.1560   -4.9410   -3.9950 H         1 DLP1        0.0000
     59 H7S        16.0320   -4.4780   -2.4990 H         1 DLP1        0.0000
     60 C28        16.1330   -2.9960   -4.0830 C.3       1 DLP1        0.0000
     61 H8R        17.2240   -3.1910   -3.9620 H         1 DLP1        0.0000
     62 H8S        15.9280   -2.0030   -3.6290 H         1 DLP1        0.0000
     63 C29        15.8520   -2.9630   -5.5990 C.3       1 DLP1        0.0000
     64 H9R        16.1190   -3.9580   -6.0230 H         1 DLP1        0.0000
     65 H9S        16.5300   -2.2170   -6.0690 H         1 DLP1        0.0000
     66 C210       14.4020   -2.6390   -6.0080 C.3       1 DLP1        0.0000
     67 H10R       13.7270   -3.4160   -5.5870 H         1 DLP1        0.0000
     68 H10S       14.3250   -2.7090   -7.1170 H         1 DLP1        0.0000
     69 C211       13.9000   -1.2470   -5.5830 C.3       1 DLP1        0.0000
     70 H11R       13.9650   -1.1530   -4.4770 H         1 DLP1        0.0000
     71 H11S       12.8210   -1.1720   -5.8530 H         1 DLP1        0.0000
     72 C212       14.6460   -0.0770   -6.2310 C.3       1 DLP1        0.0000
     73 H12R       14.5910   -0.1480   -7.3380 H         1 DLP1        0.0000
     74 H12S       15.7150   -0.0750   -5.9290 H         1 DLP1        0.0000
     75 H12T       14.1940    0.8890   -5.9200 H         1 DLP1        0.0000
     76 C33         6.1490    2.6560   -6.8350 C.3       1 DLP1        0.0000
     77 H3X         5.2770    3.3160   -7.0500 H         1 DLP1        0.0000
     78 H3Y         5.7470    1.6820   -6.4760 H         1 DLP1        0.0000
     79 C34         6.9220    2.4510   -8.1450 C.3       1 DLP1        0.0000
     80 H4X         7.8280    1.8370   -7.9430 H         1 DLP1        0.0000
     81 H4Y         7.2620    3.4390   -8.5290 H         1 DLP1        0.0000
     82 C35         6.0850    1.7520   -9.2250 C.3       1 DLP1        0.0000
     83 H5X         5.1280    2.3060   -9.3530 H         1 DLP1        0.0000
     84 H5Y         5.8340    0.7260   -8.8720 H         1 DLP1        0.0000
     85 C36         6.7780    1.6510  -10.5970 C.3       1 DLP1        0.0000
     86 H6X         6.9240    2.6670  -11.0230 H         1 DLP1        0.0000
     87 H6Y         6.0830    1.1050  -11.2770 H         1 DLP1        0.0000
     88 C37         8.1230    0.9020  -10.5830 C.3       1 DLP1        0.0000
     89 H7X         8.2040    0.3110  -11.5240 H         1 DLP1        0.0000
     90 H7Y         8.1380    0.1820   -9.7370 H         1 DLP1        0.0000
     91 C38         9.3450    1.8350  -10.5250 C.3       1 DLP1        0.0000
     92 H8X         9.3100    2.4540   -9.6040 H         1 DLP1        0.0000
     93 H8Y         9.2880    2.5330  -11.3910 H         1 DLP1        0.0000
     94 C39        10.6930    1.0960  -10.5940 C.3       1 DLP1        0.0000
     95 H9X        11.5070    1.8500  -10.6870 H         1 DLP1        0.0000
     96 H9Y        10.7120    0.4780  -11.5190 H         1 DLP1        0.0000
     97 C310       10.9990    0.1860   -9.3880 C.3       1 DLP1        0.0000
     98 H10X       11.9930   -0.2890   -9.5540 H         1 DLP1        0.0000
     99 H10Y       10.2460   -0.6310   -9.3480 H         1 DLP1        0.0000
    100 C311       11.0300    0.8970   -8.0240 C.3       1 DLP1        0.0000
    101 H11X       11.2920    0.1460   -7.2440 H         1 DLP1        0.0000
    102 H11Y       10.0080    1.2650   -7.7800 H         1 DLP1        0.0000
    103 C312       12.0120    2.0690   -7.9270 C.3       1 DLP1        0.0000
    104 H12X       11.7250    2.8820   -8.6260 H         1 DLP1        0.0000
    105 H12Y       13.0420    1.7360   -8.1730 H         1 DLP1        0.0000
    106 H12Z       12.0090    2.4850   -6.8960 H         1 DLP1        0.0000
@<TRIPOS>BOND
     1   89   88 1 
     2   96   94 1 
     3   93   91 1 
     4   87   85 1 
     5   86   85 1 
     6   95   94 1 
     7   85   88 1 
     8   85   82 1 
     9   94   91 1 
    10   94   97 1 
    11   88   91 1 
    12   88   90 1 
    13   91   92 1 
    14   98   97 1 
    15   97   99 1 
    16   97  100 1 
    17   83   82 1 
    18   82   84 1 
    19   82   79 1 
    20  104  103 1 
    21   81   79 1 
    22  105  103 1 
    23   79   80 1 
    24   79   76 1 
    25  100  103 1 
    26  100  102 1 
    27  100  101 1 
    28  103  106 1 
    29   73   72 1 
    30   68   66 1 
    31   77   76 1 
    32   76   78 1 
    33   76   42 1 
    34   72   74 1 
    35   72   75 1 
    36   72   69 1 
    37   43   42 1 
    38   65   63 1 
    39   64   63 1 
    40   66   63 1 
    41   66   67 1 
    42   66   69 1 
    43   71   69 1 
    44   42   40 1 
    45   42   44 1 
    46   63   60 1 
    47   69   70 1 
    48   41   40 2 
    49   40   39 1 
    50   37   36 1 
    51   39   36 1 
    52   60   61 1 
    53   60   62 1 
    54   60   57 1 
    55   58   57 1 
    56   36   38 1 
    57   36   28 1 
    58   32   31 2 
    59   56   54 1 
    60   57   54 1 
    61   57   59 1 
    62   47   45 1 
    63   29   28 1 
    64   52   51 1 
    65   54   51 1 
    66   54   55 1 
    67   46   45 1 
    68   28   30 1 
    69   28   25 1 
    70   31   30 1 
    71   31   33 1 
    72   45   33 1 
    73   45   48 1 
    74   11   10 1 
    75   27   25 1 
    76   51   48 1 
    77   51   53 1 
    78   25   26 1 
    79   25   23 1 
    80   33   34 1 
    81   33   35 1 
    82   48   49 1 
    83   48   50 1 
    84   13   10 1 
    85   21   20 2 
    86   10   12 1 
    87   10    1 1 
    88   16   14 1 
    89    5    2 1 
    90   24   20 1 
    91   24   17 1 
    92   23   20 1 
    93   20   22 1 
    94    4    2 1 
    95    2    1 1 
    96    2    3 1 
    97   14    1 1 
    98   14   17 1 
    99   14   15 1 
   100    1    6 1 
   101   19   17 1 
   102   17   18 1 
   103    6    7 1 
   104    6    9 1 
   105    6    8 1 
