@<TRIPOS>MOLECULE
C:\Users\Praveer\PycharmProjects\pdb_to_mol2_converter\data\pdb\dlpe.pdb
   97    96     0     0     0
SMALL
GASTEIGER

@<TRIPOS>ATOM
      1 N          -0.0000   -0.0200    0.0040 N.4       1 DLP1        0.0000
      2 HN1        -0.4060   -0.9690   -0.0470 H         1 DLP1        0.0000
      3 HN2        -0.2820    0.5230   -0.8660 H         1 DLP1        0.0000
      4 HN3        -0.3770    0.4970    0.8410 H         1 DLP1        0.0000
      5 C12         1.5080   -0.0060    0.0180 C.3       1 DLP1        0.0000
      6 H12A        1.8640   -0.5490   -0.8820 H         1 DLP1        0.0000
      7 H12B        1.8370   -0.5400    0.9320 H         1 DLP1        0.0000
      8 C11         2.0680    1.4340    0.0110 C.3       1 DLP1        0.0000
      9 H11A        3.1590    1.3690    0.2300 H         1 DLP1        0.0000
     10 H11B        1.6180    2.0280    0.8370 H         1 DLP1        0.0000
     11 P           0.5390    2.6250   -1.7920 P.3       1 DLP1        0.0000
     12 O13         0.7120    3.7630   -2.7090 O.2       1 DLP1        0.0000
     13 O14        -0.2220    1.4290   -2.2240 O.3       1 DLP1        0.0000
     14 O11        -0.1560    3.0780   -0.4560 O.3       1 DLP1        0.0000
     15 O12         1.9260    2.0900   -1.2490 O.3       1 DLP1        0.0000
     16 C1         -0.0700    4.4030    0.0600 C.3       1 DLP1        0.0000
     17 HA         -0.8390    5.0400   -0.4330 H         1 DLP1        0.0000
     18 HB          0.9260    4.8680   -0.1300 H         1 DLP1        0.0000
     19 C2         -0.3560    4.3670    1.5850 C.3       1 DLP1        0.0000
     20 HS         -0.5360    5.4070    1.9490 H         1 DLP1        0.0000
     21 O21         0.7660    3.7740    2.2780 O.3       1 DLP1        0.0000
     22 C21         1.7860    4.6100    2.4520 C.2       1 DLP1        0.0000
     23 O22         1.7800    5.7990    2.1960 O.2       1 DLP1        0.0000
     24 C22         2.9890    3.8510    3.0130 C.3       1 DLP1        0.0000
     25 H2R         3.8900    4.3120    2.5540 H         1 DLP1        0.0000
     26 H2S         2.9370    2.7920    2.6940 H         1 DLP1        0.0000
     27 C3         -1.6690    3.5680    1.8760 C.3       1 DLP1        0.0000
     28 HX         -1.8390    2.8030    1.0880 H         1 DLP1        0.0000
     29 HY         -2.5150    4.2840    1.7810 H         1 DLP1        0.0000
     30 O31        -1.6840    2.9940    3.2000 O.3       1 DLP1        0.0000
     31 C31        -1.2070    1.7590    3.2950 C.2       1 DLP1        0.0000
     32 O32        -0.9030    1.0280    2.3630 O.2       1 DLP1        0.0000
     33 C32        -1.0440    1.4000    4.7700 C.3       1 DLP1        0.0000
     34 H2X        -1.0820    2.3340    5.3680 H         1 DLP1        0.0000
     35 H2Y        -0.0380    0.9490    4.8920 H         1 DLP1        0.0000
     36 C23         3.0940    3.9530    4.5520 C.3       1 DLP1        0.0000
     37 H3R         3.0390    5.0160    4.8790 H         1 DLP1        0.0000
     38 H3S         4.0940    3.5650    4.8580 H         1 DLP1        0.0000
     39 C24         2.0240    3.1230    5.2740 C.3       1 DLP1        0.0000
     40 H4R         2.0580    2.0800    4.8850 H         1 DLP1        0.0000
     41 H4S         1.0190    3.5420    5.0440 H         1 DLP1        0.0000
     42 C25         2.2120    3.0820    6.7970 C.3       1 DLP1        0.0000
     43 H5R         2.1700    4.1180    7.2030 H         1 DLP1        0.0000
     44 H5S         3.2180    2.6670    7.0310 H         1 DLP1        0.0000
     45 C26         1.1440    2.2240    7.4900 C.3       1 DLP1        0.0000
     46 H6R         1.1650    1.1990    7.0550 H         1 DLP1        0.0000
     47 H6S         0.1410    2.6610    7.2870 H         1 DLP1        0.0000
     48 C27         1.3320    2.1150    9.0090 C.3       1 DLP1        0.0000
     49 H7R         1.2990    3.1340    9.4570 H         1 DLP1        0.0000
     50 H7S         2.3350    1.6830    9.2250 H         1 DLP1        0.0000
     51 C28         0.2540    1.2390    9.6630 C.3       1 DLP1        0.0000
     52 H8R         0.2900    0.2220    9.2130 H         1 DLP1        0.0000
     53 H8S        -0.7480    1.6710    9.4420 H         1 DLP1        0.0000
     54 C29         0.4170    1.1170   11.1830 C.3       1 DLP1        0.0000
     55 H9R         0.3730    2.1310   11.6390 H         1 DLP1        0.0000
     56 H9S         1.4190    0.6870   11.4100 H         1 DLP1        0.0000
     57 C210       -0.6650    0.2330   11.8200 C.3       1 DLP1        0.0000
     58 H10R       -0.6180   -0.7840   11.3680 H         1 DLP1        0.0000
     59 H10S       -1.6670    0.6590   11.5870 H         1 DLP1        0.0000
     60 C211       -0.5150    0.1110   13.3420 C.3       1 DLP1        0.0000
     61 H11R       -0.5610    1.1300   13.7890 H         1 DLP1        0.0000
     62 H11S        0.4910   -0.3090   13.5710 H         1 DLP1        0.0000
     63 C212       -1.5870   -0.7700   13.9880 C.3       1 DLP1        0.0000
     64 H12R       -1.5430   -1.8010   13.5750 H         1 DLP1        0.0000
     65 H12S       -2.6000   -0.3580   13.7900 H         1 DLP1        0.0000
     66 H12T       -1.4390   -0.8250   15.0870 H         1 DLP1        0.0000
     67 C33        -2.1130    0.4160    5.2910 C.3       1 DLP1        0.0000
     68 H3X        -2.0480   -0.5520    4.7450 H         1 DLP1        0.0000
     69 H3Y        -3.1300    0.8380    5.1240 H         1 DLP1        0.0000
     70 C34        -1.9310    0.1630    6.7940 C.3       1 DLP1        0.0000
     71 H4X        -1.9760    1.1390    7.3290 H         1 DLP1        0.0000
     72 H4Y        -0.9220   -0.2710    6.9750 H         1 DLP1        0.0000
     73 C35        -2.9890   -0.7700    7.3940 C.3       1 DLP1        0.0000
     74 H5X        -2.9280   -1.7670    6.9040 H         1 DLP1        0.0000
     75 H5Y        -4.0020   -0.3530    7.1940 H         1 DLP1        0.0000
     76 C36        -2.8100   -0.9370    8.9100 C.3       1 DLP1        0.0000
     77 H6X        -2.8610    0.0650    9.3920 H         1 DLP1        0.0000
     78 H6Y        -1.7990   -1.3570    9.1150 H         1 DLP1        0.0000
     79 C37        -3.8680   -1.8470    9.5450 C.3       1 DLP1        0.0000
     80 H7X        -3.8040   -2.8610    9.0890 H         1 DLP1        0.0000
     81 H7Y        -4.8800   -1.4400    9.3250 H         1 DLP1        0.0000
     82 C38        -3.6970   -1.9650   11.0660 C.3       1 DLP1        0.0000
     83 H8X        -3.7600   -0.9490   11.5170 H         1 DLP1        0.0000
     84 H8Y        -2.6850   -2.3710   11.2890 H         1 DLP1        0.0000
     85 C39        -4.7550   -2.8670   11.7160 C.3       1 DLP1        0.0000
     86 H9X        -4.6830   -3.8880   11.2780 H         1 DLP1        0.0000
     87 H9Y        -5.7670   -2.4680   11.4830 H         1 DLP1        0.0000
     88 C310       -4.5910   -2.9600   13.2400 C.3       1 DLP1        0.0000
     89 H10X       -4.6640   -1.9390   13.6770 H         1 DLP1        0.0000
     90 H10Y       -3.5780   -3.3570   13.4740 H         1 DLP1        0.0000
     91 C311       -5.6450   -3.8600   13.8970 C.3       1 DLP1        0.0000
     92 H11X       -5.5700   -4.8810   13.4560 H         1 DLP1        0.0000
     93 H11Y       -6.6570   -3.4650   13.6510 H         1 DLP1        0.0000
     94 C312       -5.4960   -3.9550   15.4170 C.3       1 DLP1        0.0000
     95 H12X       -5.5950   -2.9500   15.8800 H         1 DLP1        0.0000
     96 H12Y       -4.5000   -4.3680   15.6850 H         1 DLP1        0.0000
     97 H12Z       -6.2790   -4.6170   15.8460 H         1 DLP1        0.0000
@<TRIPOS>BOND
     1   12   11 2 
     2   13   11 1 
     3   11   15 1 
     4   11   14 1 
     5   15    8 1 
     6    6    5 1 
     7    3    1 1 
     8   14   16 1 
     9   17   16 1 
    10   18   16 1 
    11    2    1 1 
    12    1    5 1 
    13    1    4 1 
    14    8    5 1 
    15    8    9 1 
    16    8   10 1 
    17    5    7 1 
    18   16   19 1 
    19   28   27 1 
    20   19   27 1 
    21   19   20 1 
    22   19   21 1 
    23   29   27 1 
    24   27   30 1 
    25   23   22 2 
    26   21   22 1 
    27   32   31 2 
    28   22   24 1 
    29   25   24 1 
    30   26   24 1 
    31   24   36 1 
    32   30   31 1 
    33   31   33 1 
    34   36   38 1 
    35   36   37 1 
    36   36   39 1 
    37   68   67 1 
    38   33   35 1 
    39   33   67 1 
    40   33   34 1 
    41   40   39 1 
    42   41   39 1 
    43   69   67 1 
    44   39   42 1 
    45   67   70 1 
    46   70   72 1 
    47   70   71 1 
    48   70   73 1 
    49   42   44 1 
    50   42   43 1 
    51   42   45 1 
    52   74   73 1 
    53   46   45 1 
    54   75   73 1 
    55   47   45 1 
    56   73   76 1 
    57   45   48 1 
    58   76   78 1 
    59   76   77 1 
    60   76   79 1 
    61   48   50 1 
    62   48   49 1 
    63   48   51 1 
    64   80   79 1 
    65   52   51 1 
    66   81   79 1 
    67   53   51 1 
    68   79   82 1 
    69   51   54 1 
    70   82   84 1 
    71   82   83 1 
    72   82   85 1 
    73   54   56 1 
    74   54   55 1 
    75   54   57 1 
    76   86   85 1 
    77   58   57 1 
    78   87   85 1 
    79   59   57 1 
    80   85   88 1 
    81   57   60 1 
    82   88   90 1 
    83   88   89 1 
    84   88   91 1 
    85   60   62 1 
    86   60   61 1 
    87   60   63 1 
    88   92   91 1 
    89   64   63 1 
    90   93   91 1 
    91   65   63 1 
    92   91   94 1 
    93   63   66 1 
    94   94   96 1 
    95   94   97 1 
    96   94   95 1 
