@<TRIPOS>MOLECULE
C:\Users\Praveer\PycharmProjects\pdb_to_mol2_converter\data\pdb\dlpg.pdb
   99    98     0     0     0
SMALL
GASTEIGER

@<TRIPOS>ATOM
      1 C13        -0.0130    0.0950   -0.0430 C.3       1 DLP1        0.0000
      2 H13A       -0.4000    0.3330   -1.0600 H         1 DLP1        0.0000
      3 H13B       -0.3830   -0.9120    0.2470 H         1 DLP1        0.0000
      4 OC3        -0.4930    1.0810    0.8670 O.3       1 DLP1        0.0000
      5 HO3        -0.0760    1.8960    0.5360 H         1 DLP1        0.0000
      6 C12         1.5360    0.0960   -0.0770 C.3       1 DLP1        0.0000
      7 H12A        1.9060   -0.4500    0.8190 H         1 DLP1        0.0000
      8 OC2         1.9980   -0.6000   -1.2300 O.3       1 DLP1        0.0000
      9 HO2         1.8670    0.0370   -1.9700 H         1 DLP1        0.0000
     10 C11         2.1370    1.5310   -0.0430 C.3       1 DLP1        0.0000
     11 H11A        3.2060    1.5060   -0.3640 H         1 DLP1        0.0000
     12 H11B        2.1410    1.8560    1.0210 H         1 DLP1        0.0000
     13 P           1.6250    2.6740   -2.3320 P.3       1 DLP1        0.0000
     14 O13         0.7640    3.7680   -2.8270 O.3       1 DLP1        0.0000
     15 O14         1.5390    1.3500   -2.9900 O.2       1 DLP1        0.0000
     16 O12         1.3440    2.4690   -0.7830 O.3       1 DLP1        0.0000
     17 O11         3.1360    3.1510   -2.3090 O.3       1 DLP1        0.0000
     18 C1          3.4420    4.4970   -1.9290 C.3       1 DLP1        0.0000
     19 HA          4.3800    4.5030   -1.3320 H         1 DLP1        0.0000
     20 HB          2.6540    4.9430   -1.2780 H         1 DLP1        0.0000
     21 C2          3.6480    5.3900   -3.1820 C.3       1 DLP1        0.0000
     22 HS          2.9380    5.0300   -3.9670 H         1 DLP1        0.0000
     23 O21         5.0200    5.2380   -3.5980 O.3       1 DLP1        0.0000
     24 C21         5.2720    5.6020   -4.8400 C.2       1 DLP1        0.0000
     25 O22         4.4730    6.0560   -5.6340 O.2       1 DLP1        0.0000
     26 C22         6.7580    5.3900   -5.1360 C.3       1 DLP1        0.0000
     27 H2R         6.8410    4.5490   -5.8550 H         1 DLP1        0.0000
     28 H2S         7.2810    5.1110   -4.1990 H         1 DLP1        0.0000
     29 C3          3.3190    6.8830   -2.8880 C.3       1 DLP1        0.0000
     30 HX          3.4400    7.4970   -3.8090 H         1 DLP1        0.0000
     31 HY          4.0720    7.2450   -2.1550 H         1 DLP1        0.0000
     32 O31         2.0070    7.0230   -2.3030 O.3       1 DLP1        0.0000
     33 C31         1.0020    7.0360   -3.1830 C.2       1 DLP1        0.0000
     34 O32         1.1270    7.1450   -4.3910 O.2       1 DLP1        0.0000
     35 C32        -0.3240    6.9560   -2.4250 C.3       1 DLP1        0.0000
     36 H2X        -0.2490    7.5650   -1.5030 H         1 DLP1        0.0000
     37 H2Y        -0.4590    5.8910   -2.1380 H         1 DLP1        0.0000
     38 C23         7.3890    6.6660   -5.7320 C.3       1 DLP1        0.0000
     39 H3R         7.2010    7.5170   -5.0380 H         1 DLP1        0.0000
     40 H3S         6.9010    6.9080   -6.7040 H         1 DLP1        0.0000
     41 C24         8.9020    6.5300   -5.9540 C.3       1 DLP1        0.0000
     42 H4R         9.0910    5.6460   -6.6050 H         1 DLP1        0.0000
     43 H4S         9.4000    6.3410   -4.9770 H         1 DLP1        0.0000
     44 C25         9.5350    7.7690   -6.6110 C.3       1 DLP1        0.0000
     45 H5R         9.0640    7.9280   -7.6070 H         1 DLP1        0.0000
     46 H5S        10.6190    7.5780   -6.7760 H         1 DLP1        0.0000
     47 C26         9.3790    9.0500   -5.7780 C.3       1 DLP1        0.0000
     48 H6R         9.8170    8.8860   -4.7680 H         1 DLP1        0.0000
     49 H6S         8.2990    9.2620   -5.6440 H         1 DLP1        0.0000
     50 C27        10.0480   10.2740   -6.4210 C.3       1 DLP1        0.0000
     51 H7R         9.6600   10.4290   -7.4520 H         1 DLP1        0.0000
     52 H7S        11.1370   10.0550   -6.5030 H         1 DLP1        0.0000
     53 C28         9.8700   11.5670   -5.6040 C.3       1 DLP1        0.0000
     54 H8R        10.7910   12.1810   -5.7380 H         1 DLP1        0.0000
     55 H8S         9.8000   11.3220   -4.5230 H         1 DLP1        0.0000
     56 C29         8.6800   12.4470   -6.0350 C.3       1 DLP1        0.0000
     57 H9R         8.8050   12.7010   -7.1120 H         1 DLP1        0.0000
     58 H9S         8.7260   13.4030   -5.4670 H         1 DLP1        0.0000
     59 C210        7.2830   11.8280   -5.8420 C.3       1 DLP1        0.0000
     60 H10R        7.1990   10.9150   -6.4710 H         1 DLP1        0.0000
     61 H10S        6.5240   12.5510   -6.2200 H         1 DLP1        0.0000
     62 C211        6.9250   11.4790   -4.3870 C.3       1 DLP1        0.0000
     63 H11R        7.6530   10.7350   -3.9930 H         1 DLP1        0.0000
     64 H11S        5.9260   10.9850   -4.3890 H         1 DLP1        0.0000
     65 C212        6.8800   12.6870   -3.4450 C.3       1 DLP1        0.0000
     66 H12R        6.2160   13.4750   -3.8590 H         1 DLP1        0.0000
     67 H12S        7.8960   13.1170   -3.3130 H         1 DLP1        0.0000
     68 H12T        6.4950   12.3890   -2.4470 H         1 DLP1        0.0000
     69 C33        -1.5310    7.4090   -3.2780 C.3       1 DLP1        0.0000
     70 H3X        -2.4660    7.1500   -2.7310 H         1 DLP1        0.0000
     71 H3Y        -1.5440    6.8480   -4.2410 H         1 DLP1        0.0000
     72 C34        -1.5340    8.9190   -3.5570 C.3       1 DLP1        0.0000
     73 H4X        -0.6200    9.1710   -4.1400 H         1 DLP1        0.0000
     74 H4Y        -1.4930    9.4770   -2.5960 H         1 DLP1        0.0000
     75 C35        -2.7690    9.3670   -4.3520 C.3       1 DLP1        0.0000
     76 H5X        -3.6830    9.0860   -3.7830 H         1 DLP1        0.0000
     77 H5Y        -2.7870    8.8090   -5.3160 H         1 DLP1        0.0000
     78 C36        -2.8150   10.8760   -4.6550 C.3       1 DLP1        0.0000
     79 H6X        -2.9090   11.4520   -3.7090 H         1 DLP1        0.0000
     80 H6Y        -3.7360   11.0650   -5.2530 H         1 DLP1        0.0000
     81 C37        -1.6050   11.3910   -5.4560 C.3       1 DLP1        0.0000
     82 H7X        -1.9650   12.1130   -6.2230 H         1 DLP1        0.0000
     83 H7Y        -1.1400   10.5390   -5.9970 H         1 DLP1        0.0000
     84 C38        -0.5590   12.1120   -4.5900 C.3       1 DLP1        0.0000
     85 H8X        -0.2260   11.4490   -3.7640 H         1 DLP1        0.0000
     86 H8Y        -1.0480   12.9980   -4.1260 H         1 DLP1        0.0000
     87 C39         0.6670   12.5930   -5.3860 C.3       1 DLP1        0.0000
     88 H9X         1.2640   13.2790   -4.7460 H         1 DLP1        0.0000
     89 H9Y         0.3100   13.1880   -6.2560 H         1 DLP1        0.0000
     90 C310        1.5840   11.4670   -5.9020 C.3       1 DLP1        0.0000
     91 H10X        2.3840   11.9310   -6.5240 H         1 DLP1        0.0000
     92 H10Y        1.0020   10.7900   -6.5660 H         1 DLP1        0.0000
     93 C311        2.2640   10.6210   -4.8100 C.3       1 DLP1        0.0000
     94 H11X        2.9350    9.8860   -5.3130 H         1 DLP1        0.0000
     95 H11Y        1.4900   10.0270   -4.2730 H         1 DLP1        0.0000
     96 C312        3.0770   11.4270   -3.7930 C.3       1 DLP1        0.0000
     97 H12X        2.4100   12.0680   -3.1790 H         1 DLP1        0.0000
     98 H12Y        3.8100   12.0810   -4.3150 H         1 DLP1        0.0000
     99 H12Z        3.6310   10.7470   -3.1110 H         1 DLP1        0.0000
@<TRIPOS>BOND
     1   45   44 1 
     2   51   50 1 
     3   57   56 1 
     4   46   44 1 
     5   40   38 1 
     6   44   41 1 
     7   44   47 1 
     8   42   41 1 
     9   92   90 1 
    10   91   90 1 
    11   52   50 1 
    12   60   59 1 
    13   50   47 1 
    14   50   53 1 
    15   89   87 1 
    16   82   81 1 
    17   61   59 1 
    18   56   59 1 
    19   56   53 1 
    20   56   58 1 
    21   83   81 1 
    22   41   38 1 
    23   41   43 1 
    24   90   87 1 
    25   90   93 1 
    26   27   26 1 
    27   59   62 1 
    28   47   49 1 
    29   47   48 1 
    30   54   53 1 
    31   38   26 1 
    32   38   39 1 
    33   25   24 2 
    34   53   55 1 
    35   81   78 1 
    36   81   84 1 
    37   87   88 1 
    38   87   84 1 
    39   77   75 1 
    40   94   93 1 
    41   80   78 1 
    42   26   24 1 
    43   26   28 1 
    44   24   23 1 
    45   93   95 1 
    46   93   96 1 
    47   78   75 1 
    48   78   79 1 
    49   84   86 1 
    50   84   85 1 
    51   34   33 2 
    52   64   62 1 
    53   62   63 1 
    54   62   65 1 
    55   75   76 1 
    56   75   72 1 
    57   98   96 1 
    58   71   69 1 
    59   73   72 1 
    60   22   21 1 
    61   66   65 1 
    62   30   29 1 
    63   96   97 1 
    64   96   99 1 
    65   23   21 1 
    66   72   69 1 
    67   72   74 1 
    68   65   67 1 
    69   65   68 1 
    70   69   70 1 
    71   69   35 1 
    72   33   35 1 
    73   33   32 1 
    74   21   29 1 
    75   21   18 1 
    76   15   13 2 
    77   29   32 1 
    78   29   31 1 
    79   14   13 1 
    80   35   37 1 
    81   35   36 1 
    82   13   17 1 
    83   13   16 1 
    84   17   18 1 
    85    9    8 1 
    86   18   19 1 
    87   18   20 1 
    88    8    6 1 
    89    2    1 1 
    90   16   10 1 
    91   11   10 1 
    92    6   10 1 
    93    6    1 1 
    94    6    7 1 
    95   10   12 1 
    96    1    3 1 
    97    1    4 1 
    98    5    4 1 
