@<TRIPOS>MOLECULE
C:\Users\Praveer\PycharmProjects\pdb_to_mol2_converter\data\pdb\dlps.pdb
   99    98     0     0     0
SMALL
GASTEIGER

@<TRIPOS>ATOM
      1 N          -0.0180    0.0040    0.0270 N.4       1 DLP1        0.0000
      2 HN1        -0.3720    0.9620    0.3090 H         1 DLP1        0.0000
      3 HN2        -0.3920   -0.7300    0.6460 H         1 DLP1        0.0000
      4 HN3        -0.2470   -0.2100   -0.9730 H         1 DLP1        0.0000
      5 C12         1.4720    0.0090    0.0240 C.3       1 DLP1        0.0000
      6 H12A        1.8290   -0.5040    0.9050 H         1 DLP1        0.0000
      7 C13         1.9760   -0.7600   -1.2130 C.2       1 DLP1        0.0000
      8 O13A        1.1190   -1.2030   -2.0300 O.co2     1 DLP1        0.0000
      9 O13B        3.2140   -0.9200   -1.3370 O.co2     1 DLP1        0.0000
     10 C11         2.0030    1.4740    0.0120 C.3       1 DLP1        0.0000
     11 H11A        1.6680    1.9950   -0.9170 H         1 DLP1        0.0000
     12 H11B        3.1150    1.4240   -0.0420 H         1 DLP1        0.0000
     13 P           0.4200    3.1840    1.2510 P.3       1 DLP1        0.0000
     14 O13         0.3910    3.8670    2.5580 O.3       1 DLP1        0.0000
     15 O14        -0.7660    2.3920    0.8460 O.2       1 DLP1        0.0000
     16 O12         1.6410    2.1740    1.2100 O.3       1 DLP1        0.0000
     17 O11         0.7900    4.2000    0.0990 O.3       1 DLP1        0.0000
     18 C1          2.0330    4.9090    0.1290 C.3       1 DLP1        0.0000
     19 HA          2.3140    5.1670   -0.9170 H         1 DLP1        0.0000
     20 HB          2.8600    4.2870    0.5430 H         1 DLP1        0.0000
     21 C2          1.9440    6.2410    0.9280 C.3       1 DLP1        0.0000
     22 HS          1.7000    5.9700    1.9840 H         1 DLP1        0.0000
     23 O21         0.8880    7.0310    0.3490 O.3       1 DLP1        0.0000
     24 C21         0.4310    8.0100    1.1010 C.2       1 DLP1        0.0000
     25 O22         0.8890    8.3740    2.1690 O.2       1 DLP1        0.0000
     26 C22        -0.7740    8.6390    0.3980 C.3       1 DLP1        0.0000
     27 H2R        -1.6320    7.9480    0.5240 H         1 DLP1        0.0000
     28 H2S        -0.5410    8.7200   -0.6840 H         1 DLP1        0.0000
     29 C3          3.3000    7.0090    0.9240 C.3       1 DLP1        0.0000
     30 HX          3.2290    7.8710    1.6210 H         1 DLP1        0.0000
     31 HY          3.4500    7.4260   -0.0990 H         1 DLP1        0.0000
     32 O31         4.3720    6.1470    1.3660 O.3       1 DLP1        0.0000
     33 C31         5.2770    5.7910    0.4630 C.2       1 DLP1        0.0000
     34 O32         5.3740    6.2320   -0.6670 O.2       1 DLP1        0.0000
     35 C32         6.1540    4.6830    1.0440 C.3       1 DLP1        0.0000
     36 H2X         6.7130    4.2140    0.2100 H         1 DLP1        0.0000
     37 H2Y         5.4750    3.9210    1.4840 H         1 DLP1        0.0000
     38 C23        -1.1230   10.0330    0.9660 C.3       1 DLP1        0.0000
     39 H3R        -0.2250   10.6870    0.8880 H         1 DLP1        0.0000
     40 H3S        -1.3830    9.9470    2.0460 H         1 DLP1        0.0000
     41 C24        -2.2950   10.6870    0.2190 C.3       1 DLP1        0.0000
     42 H4R        -3.1820   10.0170    0.2950 H         1 DLP1        0.0000
     43 H4S        -2.0350   10.7780   -0.8600 H         1 DLP1        0.0000
     44 C25        -2.6770   12.0750    0.7590 C.3       1 DLP1        0.0000
     45 H5R        -2.9410   11.9880    1.8370 H         1 DLP1        0.0000
     46 H5S        -3.5820   12.4330    0.2180 H         1 DLP1        0.0000
     47 C26        -1.5630   13.1210    0.5970 C.3       1 DLP1        0.0000
     48 H6R        -1.2720   13.1790   -0.4750 H         1 DLP1        0.0000
     49 H6S        -0.6720   12.7880    1.1680 H         1 DLP1        0.0000
     50 C27        -1.9750   14.5200    1.0820 C.3       1 DLP1        0.0000
     51 H7R        -2.2960   14.4780    2.1450 H         1 DLP1        0.0000
     52 H7S        -2.8570   14.8330    0.4780 H         1 DLP1        0.0000
     53 C28        -0.8720   15.5820    0.9150 C.3       1 DLP1        0.0000
     54 H8R        -1.3740   16.5560    0.7020 H         1 DLP1        0.0000
     55 H8S        -0.2450   15.3420    0.0300 H         1 DLP1        0.0000
     56 C29         0.0100   15.8020    2.1610 C.3       1 DLP1        0.0000
     57 H9R        -0.6510   16.0760    3.0140 H         1 DLP1        0.0000
     58 H9S         0.6730   16.6750    1.9700 H         1 DLP1        0.0000
     59 C210        0.8840   14.6070    2.5850 C.3       1 DLP1        0.0000
     60 H10R        0.2220   13.7630    2.8780 H         1 DLP1        0.0000
     61 H10S        1.4590   14.8970    3.4950 H         1 DLP1        0.0000
     62 C211        1.8830   14.1210    1.5210 C.3       1 DLP1        0.0000
     63 H11R        1.3280   13.8030    0.6110 H         1 DLP1        0.0000
     64 H11S        2.3950   13.2150    1.9180 H         1 DLP1        0.0000
     65 C212        2.9420   15.1550    1.1250 C.3       1 DLP1        0.0000
     66 H12R        3.5110   15.4890    2.0200 H         1 DLP1        0.0000
     67 H12S        2.4670   16.0440    0.6580 H         1 DLP1        0.0000
     68 H12T        3.6590   14.7200    0.3960 H         1 DLP1        0.0000
     69 C33         7.1250    5.2050    2.1260 C.3       1 DLP1        0.0000
     70 H3X         7.5220    4.3300    2.6920 H         1 DLP1        0.0000
     71 H3Y         6.5810    5.8420    2.8570 H         1 DLP1        0.0000
     72 C34         8.3230    5.9620    1.5320 C.3       1 DLP1        0.0000
     73 H4X         7.9770    6.7940    0.8800 H         1 DLP1        0.0000
     74 H4Y         8.8830    5.2480    0.8840 H         1 DLP1        0.0000
     75 C35         9.2830    6.5140    2.5990 C.3       1 DLP1        0.0000
     76 H5X        10.3270    6.3910    2.2300 H         1 DLP1        0.0000
     77 H5Y         9.1890    5.9120    3.5300 H         1 DLP1        0.0000
     78 C36         9.0810    8.0060    2.9180 C.3       1 DLP1        0.0000
     79 H6X         9.2890    8.6010    2.0000 H         1 DLP1        0.0000
     80 H6Y         9.8250    8.3080    3.6890 H         1 DLP1        0.0000
     81 C37         7.6750    8.3610    3.4230 C.3       1 DLP1        0.0000
     82 H7X         7.4350    7.7390    4.3140 H         1 DLP1        0.0000
     83 H7Y         6.9330    8.1210    2.6300 H         1 DLP1        0.0000
     84 C38         7.5440    9.8450    3.7950 C.3       1 DLP1        0.0000
     85 H8X         7.7870   10.4650    2.9040 H         1 DLP1        0.0000
     86 H8Y         8.2980   10.0830    4.5780 H         1 DLP1        0.0000
     87 C39         6.1510   10.2320    4.3230 C.3       1 DLP1        0.0000
     88 H9X         6.1670   11.3060    4.6130 H         1 DLP1        0.0000
     89 H9Y         5.9460    9.6460    5.2470 H         1 DLP1        0.0000
     90 C310        4.9910   10.0000    3.3350 C.3       1 DLP1        0.0000
     91 H10X        4.0500   10.3590    3.8100 H         1 DLP1        0.0000
     92 H10Y        4.8710    8.9070    3.1640 H         1 DLP1        0.0000
     93 C311        5.1430   10.7000    1.9730 C.3       1 DLP1        0.0000
     94 H11X        4.2290   10.4870    1.3730 H         1 DLP1        0.0000
     95 H11Y        6.0020   10.2480    1.4270 H         1 DLP1        0.0000
     96 C312        5.3430   12.2180    2.0540 C.3       1 DLP1        0.0000
     97 H12X        6.3090   12.4610    2.5440 H         1 DLP1        0.0000
     98 H12Y        4.5250   12.6850    2.6440 H         1 DLP1        0.0000
     99 H12Z        5.3450   12.6670    1.0380 H         1 DLP1        0.0000
@<TRIPOS>BOND
     1    8    7 ar
     2    9    7 ar
     3    7    5 1 
     4    4    1 1 
     5   11   10 1 
     6   19   18 1 
     7   43   41 1 
     8   28   26 1 
     9   34   33 2 
    10   48   47 1 
    11   31   29 1 
    12   12   10 1 
    13   10    5 1 
    14   10   16 1 
    15    5    1 1 
    16    5    6 1 
    17    1    2 1 
    18    1    3 1 
    19   55   53 1 
    20   17   18 1 
    21   17   13 1 
    22   18   20 1 
    23   18   21 1 
    24   36   35 1 
    25   46   44 1 
    26   41   42 1 
    27   41   44 1 
    28   41   38 1 
    29   23   21 1 
    30   23   24 1 
    31   68   65 1 
    32   26   27 1 
    33   26   38 1 
    34   26   24 1 
    35   33   35 1 
    36   33   32 1 
    37   52   50 1 
    38   47   44 1 
    39   47   50 1 
    40   47   49 1 
    41   63   62 1 
    42   67   65 1 
    43   54   53 1 
    44   44   45 1 
    45   15   13 2 
    46   73   72 1 
    47   74   72 1 
    48   39   38 1 
    49   53   50 1 
    50   53   56 1 
    51   29   21 1 
    52   29   32 1 
    53   29   30 1 
    54   21   22 1 
    55   38   40 1 
    56   99   96 1 
    57   35   37 1 
    58   35   69 1 
    59   50   51 1 
    60   24   25 2 
    61   65   62 1 
    62   65   66 1 
    63   16   13 1 
    64   13   14 1 
    65   94   93 1 
    66   95   93 1 
    67   62   64 1 
    68   62   59 1 
    69   72   69 1 
    70   72   75 1 
    71   58   56 1 
    72   93   96 1 
    73   93   90 1 
    74   79   78 1 
    75   96   97 1 
    76   96   98 1 
    77   69   70 1 
    78   69   71 1 
    79   56   59 1 
    80   56   57 1 
    81   76   75 1 
    82   59   60 1 
    83   59   61 1 
    84   75   78 1 
    85   75   77 1 
    86   83   81 1 
    87   85   84 1 
    88   78   81 1 
    89   78   80 1 
    90   92   90 1 
    91   90   91 1 
    92   90   87 1 
    93   81   84 1 
    94   81   82 1 
    95   84   87 1 
    96   84   86 1 
    97   87   88 1 
    98   87   89 1 
