@<TRIPOS>MOLECULE
C:\Users\Praveer\PycharmProjects\pdb_to_mol2_converter\data\pdb\dma.pdb
   15    14     0     0     0
SMALL
GASTEIGER

@<TRIPOS>ATOM
      1 C           1.2500   -0.0470   -0.1260 C.2       1 DMA1        0.0000
      2 O           0.0220   -0.0340   -0.2160 O.2       1 DMA1        0.0000
      3 N           2.0050    1.0920   -0.0330 N.am      1 DMA1        0.0000
      4 C1          1.9330   -1.3690   -0.1010 C.3       1 DMA1        0.0000
      5 H11         1.1650   -2.1720   -0.0570 H         1 DMA1        0.0000
      6 H12         2.5840   -1.4530    0.7940 H         1 DMA1        0.0000
      7 H13         2.5380   -1.5110   -1.0210 H         1 DMA1        0.0000
      8 C2          3.4500    1.0940    0.0600 C.3       1 DMA1        0.0000
      9 H21         3.8910    0.2300   -0.4930 H         1 DMA1        0.0000
     10 H22         3.7100    1.0610    1.1460 H         1 DMA1        0.0000
     11 H23         3.8070    2.0470   -0.3990 H         1 DMA1        0.0000
     12 C3          1.3620    2.3910    0.0900 C.3       1 DMA1        0.0000
     13 H31         1.8360    2.9120    0.9500 H         1 DMA1        0.0000
     14 H32         0.2670    2.2860    0.2680 H         1 DMA1        0.0000
     15 H33         1.5490    2.9420   -0.8580 H         1 DMA1        0.0000
@<TRIPOS>BOND
     1    7    4 1 
     2   15   12 1 
     3    9    8 1 
     4   11    8 1 
     5    2    1 2 
     6    1    4 1 
     7    1    3 am
     8    4    5 1 
     9    4    6 1 
    10    3    8 1 
    11    3   12 1 
    12    8   10 1 
    13   12   14 1 
    14   12   13 1 
