@<TRIPOS>MOLECULE
C:\Users\Praveer\PycharmProjects\pdb_to_mol2_converter\data\pdb\dmam.pdb
   10     9     0     0     0
SMALL
GASTEIGER

@<TRIPOS>ATOM
      1 N1          1.3760    0.1420   -0.4760 N.3       1 DMA1        0.0000
      2 HN1         1.9200   -0.6990   -0.2570 H         1 DMA1        0.0000
      3 C1         -0.0260   -0.0150   -0.0310 C.3       1 DMA1        0.0000
      4 C2          2.0580    1.3500    0.0330 C.3       1 DMA1        0.0000
      5 H11        -0.0860   -0.1420    1.0610 H         1 DMA1        0.0000
      6 H12        -0.4860   -0.8960   -0.5070 H         1 DMA1        0.0000
      7 H13        -0.6240    0.8670   -0.3100 H         1 DMA1        0.0000
      8 H21         3.0710    1.4310   -0.3920 H         1 DMA1        0.0000
      9 H22         2.1460    1.3270    1.1300 H         1 DMA1        0.0000
     10 H23         1.5040    2.2590   -0.2500 H         1 DMA1        0.0000
@<TRIPOS>BOND
     1    6    3 1 
     2    1    2 1 
     3    1    3 1 
     4    1    4 1 
     5    8    4 1 
     6    7    3 1 
     7   10    4 1 
     8    3    5 1 
     9    4    9 1 
