@<TRIPOS>MOLECULE
C:\Users\Praveer\PycharmProjects\pdb_to_mol2_converter\data\pdb\dman.pdb
   20    20     0     0     0
SMALL
GASTEIGER

@<TRIPOS>ATOM
      1 C1         -0.7040   -1.1520   -0.1750 C.ar      1 DMA1        0.0000
      2 H1         -0.1490   -2.0590   -0.3560 H         1 DMA1        0.0000
      3 C2         -2.1040   -1.1990   -0.2230 C.ar      1 DMA1        0.0000
      4 H2         -2.6060   -2.1350   -0.4210 H         1 DMA1        0.0000
      5 C3         -2.8490   -0.0330   -0.0190 C.ar      1 DMA1        0.0000
      6 H3         -3.9290   -0.0680   -0.0560 H         1 DMA1        0.0000
      7 C4         -2.1960    1.1800    0.2280 C.ar      1 DMA1        0.0000
      8 H4         -2.7710    2.0810    0.3850 H         1 DMA1        0.0000
      9 C5         -0.7950    1.2250    0.2740 C.ar      1 DMA1        0.0000
     10 H5         -0.3200    2.1720    0.4760 H         1 DMA1        0.0000
     11 C6         -0.0290    0.0580    0.0790 C.ar      1 DMA1        0.0000
     12 N1          1.4060    0.0750    0.1180 N.pl3     1 DMA1        0.0000
     13 C7          2.1250    1.3350   -0.0290 C.3       1 DMA1        0.0000
     14 H71         1.9410    2.0090    0.8380 H         1 DMA1        0.0000
     15 H72         1.8160    1.8660   -0.9580 H         1 DMA1        0.0000
     16 H73         3.2230    1.1660   -0.0960 H         1 DMA1        0.0000
     17 C8          2.0900   -0.9970    0.8330 C.3       1 DMA1        0.0000
     18 H81         1.9260   -1.9830    0.3460 H         1 DMA1        0.0000
     19 H82         1.7340   -1.0650    1.8860 H         1 DMA1        0.0000
     20 H83         3.1890   -0.8270    0.8600 H         1 DMA1        0.0000
@<TRIPOS>BOND
     1   15   13 1 
     2    4    3 1 
     3    2    1 1 
     4    3    1 ar
     5    3    5 ar
     6    1   11 ar
     7   16   13 1 
     8    6    5 1 
     9   13   12 1 
    10   13   14 1 
    11    5    7 ar
    12   11   12 1 
    13   11    9 ar
    14   12   17 1 
    15    7    9 ar
    16    7    8 1 
    17    9   10 1 
    18   18   17 1 
    19   17   20 1 
    20   17   19 1 
