@<TRIPOS>MOLECULE
C:\Users\Praveer\PycharmProjects\pdb_to_mol2_converter\data\pdb\dmanol.pdb
   26    25     0     0     0
SMALL
GASTEIGER

@<TRIPOS>ATOM
      1 C1          0.0510   -0.0300   -0.0840 C.3       1 DMA1        0.0000
      2 H11        -0.3570    0.4000    0.8590 H         1 DMA1        0.0000
      3 H12        -0.3430    0.5670   -0.9380 H         1 DMA1        0.0000
      4 O1         -0.4000   -1.3890   -0.2020 O.3       1 DMA1        0.0000
      5 HO1        -1.3080   -1.4260    0.1180 H         1 DMA1        0.0000
      6 C2          1.5690    0.0240   -0.0590 C.3       1 DMA1        0.0000
      7 H2          1.9470   -0.5700    0.8050 H         1 DMA1        0.0000
      8 O2          2.0410   -0.5610   -1.2770 O.3       1 DMA1        0.0000
      9 HO2         1.4100   -1.2820   -1.4170 H         1 DMA1        0.0000
     10 C3          2.0830    1.4550    0.0120 C.3       1 DMA1        0.0000
     11 H3          1.7640    1.9610   -0.9300 H         1 DMA1        0.0000
     12 O3          1.4740    2.1370    1.1260 O.3       1 DMA1        0.0000
     13 HO3         1.3220    3.0390    0.8210 H         1 DMA1        0.0000
     14 C4          3.6060    1.5180    0.1430 C.3       1 DMA1        0.0000
     15 H4          4.0610    0.9060   -0.6710 H         1 DMA1        0.0000
     16 O4          4.0030    0.9780    1.4130 O.3       1 DMA1        0.0000
     17 HO4         3.2250    1.1280    1.9680 H         1 DMA1        0.0000
     18 C5          4.1620    2.9300    0.0440 C.3       1 DMA1        0.0000
     19 H5          3.9250    3.4980    0.9740 H         1 DMA1        0.0000
     20 O5          3.5770    3.6170   -1.0660 O.3       1 DMA1        0.0000
     21 HO5         4.2800    4.2320   -1.3220 H         1 DMA1        0.0000
     22 C6          5.6630    2.8910   -0.1620 C.3       1 DMA1        0.0000
     23 H61         5.9130    2.3570   -1.1070 H         1 DMA1        0.0000
     24 H62         6.1380    2.3370    0.6800 H         1 DMA1        0.0000
     25 O6          6.1930    4.2260   -0.2050 O.3       1 DMA1        0.0000
     26 HO6         7.0110    4.2330    0.3040 H         1 DMA1        0.0000
@<TRIPOS>BOND
     1    9    8 1 
     2   21   20 1 
     3    8    6 1 
     4   23   22 1 
     5   20   18 1 
     6    3    1 1 
     7   11   10 1 
     8   15   14 1 
     9   25   22 1 
    10   25   26 1 
    11    4    1 1 
    12    4    5 1 
    13   22   18 1 
    14   22   24 1 
    15    1    6 1 
    16    1    2 1 
    17    6   10 1 
    18    6    7 1 
    19   10   14 1 
    20   10   12 1 
    21   18   14 1 
    22   18   19 1 
    23   14   16 1 
    24   13   12 1 
    25   16   17 1 
