@<TRIPOS>MOLECULE
C:\Users\Praveer\PycharmProjects\pdb_to_mol2_converter\data\pdb\dmb1.pdb
   13    12     0     0     0
SMALL
GASTEIGER

@<TRIPOS>ATOM
      1 C1          0.0210    0.0080   -0.0000 C.2       1 DMB1        0.0000
      2 H11        -0.5480   -0.9310   -0.0000 H         1 DMB1        0.0000
      3 H12        -0.5310    0.9590   -0.0000 H         1 DMB1        0.0000
      4 C2          1.3630   -0.0160    0.0000 C.2       1 DMB1        0.0000
      5 C2M         2.1270   -1.3160   -0.0000 C.3       1 DMB1        0.0000
      6 H2M1        1.4540   -2.2020    0.0000 H         1 DMB1        0.0000
      7 H2M2        2.7740   -1.4000    0.8990 H         1 DMB1        0.0000
      8 H2M3        2.7740   -1.4000   -0.8990 H         1 DMB1        0.0000
      9 C3          2.1800    1.2230    0.0000 C.2       1 DMB1        0.0000
     10 H31         1.6220    2.1740    0.0000 H         1 DMB1        0.0000
     11 C4          3.5270    1.3080    0.0000 C.2       1 DMB1        0.0000
     12 H41         4.1600    0.4080    0.0000 H         1 DMB1        0.0000
     13 H42         4.0310    2.2860    0.0000 H         1 DMB1        0.0000
@<TRIPOS>BOND
     1    8    5 1 
     2    1    2 1 
     3    1    3 1 
     4    1    4 2 
     5    4    5 1 
     6    4    9 1 
     7    5    6 1 
     8    5    7 1 
     9    9   10 1 
    10    9   11 2 
    11   11   12 1 
    12   11   13 1 
