@<TRIPOS>MOLECULE
C:\Users\Praveer\PycharmProjects\pdb_to_mol2_converter\data\pdb\dmbu.pdb
   22    21     0     0     0
SMALL
GASTEIGER

@<TRIPOS>ATOM
      1 C1         -0.1120    0.1500   -0.0030 C.3       1 DMB1        0.0000
      2 H11        -0.5180   -0.8840   -0.0090 H         1 DMB1        0.0000
      3 H12        -0.4890    0.6930   -0.8920 H         1 DMB1        0.0000
      4 H13        -0.4990    0.6860    0.8850 H         1 DMB1        0.0000
      5 C6          1.4250   -0.3030   -2.3860 C.3       1 DMB1        0.0000
      6 H61         1.5960    0.7760   -2.5870 H         1 DMB1        0.0000
      7 H62         0.3470   -0.5460   -2.5140 H         1 DMB1        0.0000
      8 H63         1.9920   -0.8860   -3.1430 H         1 DMB1        0.0000
      9 O5          1.8950   -0.6880   -1.0950 O.3       1 DMB1        0.0000
     10 C2          1.4260    0.0940    0.0050 C.3       1 DMB1        0.0000
     11 O7          1.8810   -0.7080    1.0970 O.3       1 DMB1        0.0000
     12 C8          1.4110   -0.3310    2.3900 C.3       1 DMB1        0.0000
     13 H81         0.3280   -0.5560    2.5080 H         1 DMB1        0.0000
     14 H82         1.5990    0.7440    2.5990 H         1 DMB1        0.0000
     15 H83         1.9630   -0.9300    3.1460 H         1 DMB1        0.0000
     16 C3          2.0370    1.5210    0.0160 C.3       1 DMB1        0.0000
     17 H31         1.6580    2.0670    0.9040 H         1 DMB1        0.0000
     18 H32         1.6690    2.0740   -0.8730 H         1 DMB1        0.0000
     19 C4          3.5760    1.5530    0.0240 C.3       1 DMB1        0.0000
     20 H41         3.9760    1.0340   -0.8740 H         1 DMB1        0.0000
     21 H42         3.9670    1.0280    0.9220 H         1 DMB1        0.0000
     22 H43         3.9480    2.6000    0.0280 H         1 DMB1        0.0000
@<TRIPOS>BOND
     1    8    5 1 
     2    6    5 1 
     3    7    5 1 
     4    5    9 1 
     5    9   10 1 
     6    3    1 1 
     7   20   19 1 
     8   18   16 1 
     9    2    1 1 
    10    1   10 1 
    11    1    4 1 
    12   10   16 1 
    13   10   11 1 
    14   16   19 1 
    15   16   17 1 
    16   19   22 1 
    17   19   21 1 
    18   11   12 1 
    19   12   13 1 
    20   12   14 1 
    21   12   15 1 
