@<TRIPOS>MOLECULE
C:\Users\Praveer\PycharmProjects\pdb_to_mol2_converter\data\pdb\dmca.pdb
   12    11     0     0     0
SMALL
GASTEIGER

@<TRIPOS>ATOM
      1 C1         -0.5380   -1.3600    0.0260 C.3       1 DMC1        0.0000
      2 H11        -0.1970   -1.9070    0.9330 H         1 DMC1        0.0000
      3 H12        -0.2300   -1.9290   -0.8790 H         1 DMC1        0.0000
      4 H13        -1.6470   -1.3060    0.0450 H         1 DMC1        0.0000
      5 O1          0.0060   -0.0310   -0.0000 O.3       1 DMC1        0.0000
      6 C           1.3560    0.0010   -0.0360 C.2       1 DMC1        0.0000
      7 O           2.1070   -0.9720   -0.0480 O.2       1 DMC1        0.0000
      8 O2          1.7300    1.3000   -0.0570 O.3       1 DMC1        0.0000
      9 C2          3.1540    1.4880   -0.1030 C.3       1 DMC1        0.0000
     10 H21         3.5810    1.0300   -1.0220 H         1 DMC1        0.0000
     11 H22         3.6400    1.0340    0.7890 H         1 DMC1        0.0000
     12 H23         3.3840    2.5740   -0.1130 H         1 DMC1        0.0000
@<TRIPOS>BOND
     1   10    9 1 
     2    3    1 1 
     3   12    9 1 
     4    9    8 1 
     5    9   11 1 
     6    8    6 1 
     7    7    6 2 
     8    6    5 1 
     9    5    1 1 
    10    1    4 1 
    11    1    2 1 
