@<TRIPOS>MOLECULE
C:\Users\Praveer\PycharmProjects\pdb_to_mol2_converter\data\pdb\dmcb.pdb
   13    12     0     0     0
SMALL
GASTEIGER

@<TRIPOS>ATOM
      1 C1         -0.0150   -0.0290    0.0460 C.3       1 DMC1        0.0000
      2 H11        -0.3740   -1.0810    0.0420 H         1 DMC1        0.0000
      3 H12        -0.4550    0.5020   -0.8280 H         1 DMC1        0.0000
      4 H13        -0.3770    0.4670    0.9740 H         1 DMC1        0.0000
      5 N2          1.4220    0.0170   -0.0130 N.am      1 DMC1        0.0000
      6 H2          1.9410   -0.8120   -0.1920 H         1 DMC1        0.0000
      7 C3          2.0810    1.2080   -0.0440 C.2       1 DMC1        0.0000
      8 O31         1.5660    2.3180    0.0260 O.2       1 DMC1        0.0000
      9 O32         3.4040    0.9860   -0.1690 O.3       1 DMC1        0.0000
     10 C4          4.1830    2.1940   -0.1870 C.3       1 DMC1        0.0000
     11 H41         4.0580    2.7560    0.7650 H         1 DMC1        0.0000
     12 H42         3.8790    2.8480   -1.0360 H         1 DMC1        0.0000
     13 H43         5.2580    1.9430   -0.3070 H         1 DMC1        0.0000
@<TRIPOS>BOND
     1   12   10 1 
     2    3    1 1 
     3   13   10 1 
     4    6    5 1 
     5   10    9 1 
     6   10   11 1 
     7    9    7 1 
     8    7    5 am
     9    7    8 2 
    10    5    1 1 
    11    2    1 1 
    12    1    4 1 
