@<TRIPOS>MOLECULE
C:\Users\Praveer\PycharmProjects\pdb_to_mol2_converter\data\pdb\dmds.pdb
   10     9     0     0     0
SMALL
GASTEIGER

@<TRIPOS>ATOM
      1 H1          0.0240   -0.0040    0.0690 H         1 DMD1        0.0000
      2 H2          1.5260   -0.5070    0.9210 H         1 DMD1        0.0000
      3 H3          1.4580   -0.5390   -0.8770 H         1 DMD1        0.0000
      4 CM1         1.1340    0.0210    0.0260 C.3       1 DMD1        0.0000
      5 S2          1.7350    1.7330   -0.0280 S.3       1 DMD1        0.0000
      6 S3          1.0080    2.5340    1.6870 S.3       1 DMD1        0.0000
      7 CM4         2.2590    2.0760    2.9210 C.3       1 DMD1        0.0000
      8 H4          3.2520    2.4920    2.6460 H         1 DMD1        0.0000
      9 H5          2.3550    0.9720    2.9950 H         1 DMD1        0.0000
     10 H6          1.9840    2.4680    3.9230 H         1 DMD1        0.0000
@<TRIPOS>BOND
     1    3    4 1 
     2    5    4 1 
     3    5    6 1 
     4    4    1 1 
     5    4    2 1 
     6    6    7 1 
     7    8    7 1 
     8    7    9 1 
     9    7   10 1 
