@<TRIPOS>MOLECULE
C:\Users\Praveer\PycharmProjects\pdb_to_mol2_converter\data\pdb\dme.pdb
   16    15     0     0     0
SMALL
GASTEIGER

@<TRIPOS>ATOM
      1 C1         -0.0180   -0.0070   -0.0040 C.3       1 DME1        0.0000
      2 H11        -0.4110    0.4990   -0.9130 H         1 DME1        0.0000
      3 H12        -0.4150    0.5000    0.9020 H         1 DME1        0.0000
      4 H13        -0.3670   -1.0620   -0.0040 H         1 DME1        0.0000
      5 O2          1.4010    0.0170   -0.0010 O.3       1 DME1        0.0000
      6 C3          1.8910    1.3510   -0.0000 C.3       1 DME1        0.0000
      7 H31         1.5210    1.8830    0.9040 H         1 DME1        0.0000
      8 H32         1.5220    1.8850   -0.9040 H         1 DME1        0.0000
      9 C4          3.4230    1.3620   -0.0000 C.3       1 DME1        0.0000
     10 H41         3.7920    0.8280   -0.9040 H         1 DME1        0.0000
     11 H42         3.7920    0.8290    0.9040 H         1 DME1        0.0000
     12 O5          3.9120    2.6950   -0.0010 O.3       1 DME1        0.0000
     13 C6          5.3310    2.7200   -0.0040 C.3       1 DME1        0.0000
     14 H61         5.7240    2.2140   -0.9130 H         1 DME1        0.0000
     15 H62         5.7280    2.2130    0.9020 H         1 DME1        0.0000
     16 H63         5.6800    3.7750   -0.0040 H         1 DME1        0.0000
@<TRIPOS>BOND
     1    2    1 1 
     2   14   13 1 
     3    8    6 1 
     4   10    9 1 
     5    1    4 1 
     6    1    5 1 
     7    1    3 1 
     8   13   16 1 
     9   13   12 1 
    10   13   15 1 
    11    5    6 1 
    12   12    9 1 
    13    6    9 1 
    14    6    7 1 
    15    9   11 1 
