@<TRIPOS>MOLECULE
C:\Users\Praveer\PycharmProjects\pdb_to_mol2_converter\data\pdb\dmee.pdb
    9     8     0     0     0
SMALL
GASTEIGER

@<TRIPOS>ATOM
      1 C1         -0.0110   -0.0040   -0.0050 C.3       1 DME1        0.0000
      2 H11        -0.3990    0.5070   -0.9120 H         1 DME1        0.0000
      3 H12        -0.4040    0.5030    0.9030 H         1 DME1        0.0000
      4 H13        -0.3660   -1.0570   -0.0080 H         1 DME1        0.0000
      5 O2          1.4070    0.0110   -0.0000 O.3       1 DME1        0.0000
      6 C3          1.9000    1.3410    0.0050 C.3       1 DME1        0.0000
      7 H31         1.5490    1.8780    0.9120 H         1 DME1        0.0000
      8 H32         1.5540    1.8830   -0.9030 H         1 DME1        0.0000
      9 H33         3.0110    1.3210    0.0080 H         1 DME1        0.0000
@<TRIPOS>BOND
     1    2    1 1 
     2    8    6 1 
     3    4    1 1 
     4    1    5 1 
     5    1    3 1 
     6    5    6 1 
     7    6    9 1 
     8    6    7 1 
