@<TRIPOS>MOLECULE
C:\Users\Praveer\PycharmProjects\pdb_to_mol2_converter\data\pdb\dmep.pdb
   13    12     0     0     0
SMALL
GASTEIGER

@<TRIPOS>ATOM
      1 P1          1.4900    0.0060    0.0260 P.3       1 DME1        0.0000
      2 O3          0.3010   -0.0790    0.9560 O.3       1 DME1        0.0000
      3 O4          2.7190   -0.8330    0.2710 O.2       1 DME1        0.0000
      4 O1          1.9590    1.5760   -0.0420 O.3       1 DME1        0.0000
      5 O2          0.9600   -0.3170   -1.4890 O.3       1 DME1        0.0000
      6 C1          0.9380    2.5480   -0.2660 C.3       1 DME1        0.0000
      7 H11         0.2020    2.5470    0.5720 H         1 DME1        0.0000
      8 H12         0.3960    2.3570   -1.2220 H         1 DME1        0.0000
      9 H13         1.3940    3.5580   -0.3230 H         1 DME1        0.0000
     10 C2          1.8890   -0.1530   -2.5590 C.3       1 DME1        0.0000
     11 H21         2.7010   -0.9150   -2.4950 H         1 DME1        0.0000
     12 H22         2.3460    0.8640   -2.5550 H         1 DME1        0.0000
     13 H23         1.3620   -0.2850   -3.5260 H         1 DME1        0.0000
@<TRIPOS>BOND
     1   13   10 1 
     2   10   12 1 
     3   10   11 1 
     4   10    5 1 
     5    5    1 1 
     6    8    6 1 
     7    9    6 1 
     8    6    4 1 
     9    6    7 1 
    10    4    1 1 
    11    1    3 2 
    12    1    2 1 
