@<TRIPOS>MOLECULE
C:\Users\Praveer\PycharmProjects\pdb_to_mol2_converter\data\pdb\dmf.pdb
   12    11     0     0     0
SMALL
GASTEIGER

@<TRIPOS>ATOM
      1 HA          1.7810   -0.9830    0.0200 H         1 DMF1        0.0000
      2 C           1.2050   -0.0450    0.0030 C.2       1 DMF1        0.0000
      3 O          -0.0230   -0.0500   -0.0100 O.2       1 DMF1        0.0000
      4 N           1.9630    1.0900   -0.0020 N.am      1 DMF1        0.0000
      5 CC          1.3550    2.4080   -0.0200 C.3       1 DMF1        0.0000
      6 HC1         1.6900    2.9390    0.8960 H         1 DMF1        0.0000
      7 HC2         0.2440    2.3330   -0.0380 H         1 DMF1        0.0000
      8 HC3         1.7190    2.9270   -0.9330 H         1 DMF1        0.0000
      9 CT          3.4100    1.0150    0.0170 C.3       1 DMF1        0.0000
     10 HT1         3.7790    1.5340   -0.8930 H         1 DMF1        0.0000
     11 HT2         3.7460   -0.0470    0.0240 H         1 DMF1        0.0000
     12 HT3         3.7550    1.5390    0.9350 H         1 DMF1        0.0000
@<TRIPOS>BOND
     1    8    5 1 
     2   10    9 1 
     3    7    5 1 
     4    5    4 1 
     5    5    6 1 
     6    3    2 2 
     7    4    2 am
     8    4    9 1 
     9    2    1 1 
    10    9   11 1 
    11    9   12 1 
