@<TRIPOS>MOLECULE
C:\Users\Praveer\PycharmProjects\pdb_to_mol2_converter\data\pdb\dmop.pdb
   19    18     0     0     0
SMALL
GASTEIGER

@<TRIPOS>ATOM
      1 C1          0.0470    0.0470    0.0820 C.3       1 DMO1        0.0000
      2 H11        -0.2770    0.6100    0.9800 H         1 DMO1        0.0000
      3 H12        -0.3630   -0.9830    0.1390 H         1 DMO1        0.0000
      4 H13        -0.3560    0.5410   -0.8260 H         1 DMO1        0.0000
      5 C2          1.5730   -0.0080    0.0180 C.3       1 DMO1        0.0000
      6 O4          1.9510   -0.7600    1.1720 O.3       1 DMO1        0.0000
      7 C5          3.0530   -0.2430    1.9180 C.3       1 DMO1        0.0000
      8 H51         2.7950    0.7320    2.3880 H         1 DMO1        0.0000
      9 H52         3.9580   -0.1330    1.2840 H         1 DMO1        0.0000
     10 H53         3.2920   -0.9590    2.7340 H         1 DMO1        0.0000
     11 O6          1.8470   -0.7930   -1.1390 O.3       1 DMO1        0.0000
     12 C7          3.2210   -1.1140   -1.3360 C.3       1 DMO1        0.0000
     13 H71         3.6050   -1.7130   -0.4830 H         1 DMO1        0.0000
     14 H72         3.8420   -0.2020   -1.4660 H         1 DMO1        0.0000
     15 H73         3.3150   -1.7300   -2.2570 H         1 DMO1        0.0000
     16 C3          2.1250    1.4230   -0.1100 C.3       1 DMO1        0.0000
     17 H31         1.7920    2.0370    0.7510 H         1 DMO1        0.0000
     18 H32         1.7280    1.8820   -1.0390 H         1 DMO1        0.0000
     19 H33         3.2310    1.4410   -0.1640 H         1 DMO1        0.0000
@<TRIPOS>BOND
     1   15   12 1 
     2   14   12 1 
     3   12   11 1 
     4   12   13 1 
     5   11    5 1 
     6   18   16 1 
     7    4    1 1 
     8   19   16 1 
     9   16    5 1 
    10   16   17 1 
    11    5    1 1 
    12    5    6 1 
    13    1    3 1 
    14    1    2 1 
    15    6    7 1 
    16    9    7 1 
    17    7    8 1 
    18    7   10 1 
