@<TRIPOS>MOLECULE
C:\Users\Praveer\PycharmProjects\pdb_to_mol2_converter\data\pdb\dmp1.pdb
   16    15     0     0     0
SMALL
GASTEIGER

@<TRIPOS>ATOM
      1 C1         -0.0430    0.0170   -0.0000 C.2       1 DMP1        0.0000
      2 H11        -0.6310   -0.9140   -0.0000 H         1 DMP1        0.0000
      3 H12        -0.5900    0.9720   -0.0010 H         1 DMP1        0.0000
      4 C2          1.3020   -0.0170   -0.0000 C.2       1 DMP1        0.0000
      5 H21         1.7980   -1.0030    0.0000 H         1 DMP1        0.0000
      6 C3          2.1500    1.1920   -0.0010 C.2       1 DMP1        0.0000
      7 H31         1.6370    2.1650   -0.0020 H         1 DMP1        0.0000
      8 C4          3.4960    1.2080    0.0000 C.2       1 DMP1        0.0000
      9 C4M         4.3750   -0.0140    0.0020 C.3       1 DMP1        0.0000
     10 H4M1        4.1900   -0.6420   -0.8970 H         1 DMP1        0.0000
     11 H4M2        4.1900   -0.6400    0.9010 H         1 DMP1        0.0000
     12 H4M3        5.4520    0.2590    0.0010 H         1 DMP1        0.0000
     13 C5          4.3120    2.4730   -0.0000 C.3       1 DMP1        0.0000
     14 H51         3.6810    3.3880   -0.0010 H         1 DMP1        0.0000
     15 H52         4.9660    2.5170   -0.8970 H         1 DMP1        0.0000
     16 H53         4.9650    2.5180    0.8970 H         1 DMP1        0.0000
@<TRIPOS>BOND
     1   10    9 1 
     2   15   13 1 
     3    7    6 1 
     4    3    1 1 
     5    6    4 1 
     6    6    8 2 
     7   14   13 1 
     8    1    2 1 
     9    1    4 2 
    10    4    5 1 
    11    8   13 1 
    12    8    9 1 
    13   13   16 1 
    14   12    9 1 
    15    9   11 1 
