@<TRIPOS>MOLECULE
C:\Users\Praveer\PycharmProjects\pdb_to_mol2_converter\data\pdb\dmp2.pdb
   16    15     0     0     0
SMALL
GASTEIGER

@<TRIPOS>ATOM
      1 C1          0.0280    0.0240    0.0010 C.2       1 DMP1        0.0000
      2 H11        -0.5630   -0.9020    0.0010 H         1 DMP1        0.0000
      3 H12        -0.5040    0.9870    0.0000 H         1 DMP1        0.0000
      4 C2          1.3680   -0.0300    0.0010 C.2       1 DMP1        0.0000
      5 C2M         2.1020   -1.3480    0.0010 C.3       1 DMP1        0.0000
      6 H2M1        1.4090   -2.2170    0.0010 H         1 DMP1        0.0000
      7 H2M2        2.7480   -1.4480    0.8990 H         1 DMP1        0.0000
      8 H2M3        2.7470   -1.4480   -0.8990 H         1 DMP1        0.0000
      9 C3          2.2110    1.1910    0.0000 C.2       1 DMP1        0.0000
     10 H31         1.6750    2.1520   -0.0010 H         1 DMP1        0.0000
     11 C4          3.5560    1.2550   -0.0000 C.2       1 DMP1        0.0000
     12 H41         4.1520    0.3280   -0.0000 H         1 DMP1        0.0000
     13 C5          4.3150    2.5560   -0.0010 C.3       1 DMP1        0.0000
     14 H51         4.0750    3.1670    0.8970 H         1 DMP1        0.0000
     15 H52         4.0760    3.1650   -0.9010 H         1 DMP1        0.0000
     16 H53         5.4120    2.3790   -0.0000 H         1 DMP1        0.0000
@<TRIPOS>BOND
     1   15   13 1 
     2    8    5 1 
     3   10    9 1 
     4   13   11 1 
     5   13   16 1 
     6   13   14 1 
     7    3    1 1 
     8    9   11 2 
     9    9    4 1 
    10   11   12 1 
    11    1    2 1 
    12    1    4 2 
    13    4    5 1 
    14    5    6 1 
    15    5    7 1 
