@<TRIPOS>MOLECULE
C:\Users\Praveer\PycharmProjects\pdb_to_mol2_converter\data\pdb\dmpa.pdb
  100    99     0     0     0
SMALL
GASTEIGER

@<TRIPOS>ATOM
      1 P           1.5900    0.0030    0.0110 P.3       1 DMP1        0.0000
      2 O13         2.1400   -0.5100    1.2760 O.3       1 DMP1        0.0000
      3 O14         2.1360   -0.4940   -1.2610 O.2       1 DMP1        0.0000
      4 O12         2.0050    1.5150    0.0120 O.3       1 DMP1        0.0000
      5 H12         2.9650    1.5240    0.0060 H         1 DMP1        0.0000
      6 O11         0.0110    0.0010    0.0070 O.3       1 DMP1        0.0000
      7 C1         -0.7320    0.4380    1.1480 C.3       1 DMP1        0.0000
      8 HA         -0.2010    0.2560    2.1130 H         1 DMP1        0.0000
      9 HB         -1.6750   -0.1520    1.1800 H         1 DMP1        0.0000
     10 C2         -1.1240    1.9370    1.0270 C.3       1 DMP1        0.0000
     11 HS         -0.2580    2.5620    1.3480 H         1 DMP1        0.0000
     12 O21        -2.2940    2.2180    1.8140 O.3       1 DMP1        0.0000
     13 C21        -2.1280    2.2270    3.1180 C.2       1 DMP1        0.0000
     14 O22        -1.0800    2.1030    3.7210 O.2       1 DMP1        0.0000
     15 C22        -3.4930    2.4720    3.7640 C.3       1 DMP1        0.0000
     16 H2R        -4.2500    1.8840    3.2040 H         1 DMP1        0.0000
     17 H2S        -3.7300    3.5480    3.6420 H         1 DMP1        0.0000
     18 C3         -1.4350    2.3160   -0.4500 C.3       1 DMP1        0.0000
     19 HX         -2.1870    1.5990   -0.8530 H         1 DMP1        0.0000
     20 HY         -0.5040    2.1670   -1.0400 H         1 DMP1        0.0000
     21 O31        -1.8430    3.6980   -0.5720 O.3       1 DMP1        0.0000
     22 C31        -3.1460    3.9280   -0.5210 C.2       1 DMP1        0.0000
     23 O32        -4.0330    3.0960   -0.5010 O.2       1 DMP1        0.0000
     24 C32        -3.3630    5.4410   -0.5050 C.3       1 DMP1        0.0000
     25 H2X        -3.1710    5.8140   -1.5320 H         1 DMP1        0.0000
     26 H2Y        -2.6180    5.8940    0.1820 H         1 DMP1        0.0000
     27 C23        -3.5300    2.0780    5.2580 C.3       1 DMP1        0.0000
     28 H3R        -2.7660    2.6460    5.8330 H         1 DMP1        0.0000
     29 H3S        -3.2790    0.9950    5.3460 H         1 DMP1        0.0000
     30 C24        -4.9160    2.3100    5.8770 C.3       1 DMP1        0.0000
     31 H4R        -5.0020    1.7390    6.8290 H         1 DMP1        0.0000
     32 H4S        -5.6800    1.8980    5.1800 H         1 DMP1        0.0000
     33 C25        -5.2190    3.7900    6.1670 C.3       1 DMP1        0.0000
     34 H5R        -4.5500    4.4450    5.5670 H         1 DMP1        0.0000
     35 H5S        -4.9950    3.9900    7.2390 H         1 DMP1        0.0000
     36 C26        -6.6740    4.1780    5.8620 C.3       1 DMP1        0.0000
     37 H6R        -6.9200    5.1240    6.3950 H         1 DMP1        0.0000
     38 H6S        -7.3530    3.3870    6.2490 H         1 DMP1        0.0000
     39 C27        -6.9230    4.3960    4.3610 C.3       1 DMP1        0.0000
     40 H7R        -6.5590    3.5090    3.7980 H         1 DMP1        0.0000
     41 H7S        -6.3310    5.2760    4.0220 H         1 DMP1        0.0000
     42 C28        -8.4050    4.6250    4.0290 C.3       1 DMP1        0.0000
     43 H8R        -8.8090    5.4190    4.6970 H         1 DMP1        0.0000
     44 H8S        -8.9650    3.6870    4.2450 H         1 DMP1        0.0000
     45 C29        -8.6590    5.0350    2.5690 C.3       1 DMP1        0.0000
     46 H9R        -8.2480    6.0550    2.3970 H         1 DMP1        0.0000
     47 H9S        -9.7580    5.0880    2.4060 H         1 DMP1        0.0000
     48 C210       -8.0390    4.0780    1.5370 C.3       1 DMP1        0.0000
     49 H10R       -8.2650    3.0240    1.8100 H         1 DMP1        0.0000
     50 H10S       -6.9320    4.1960    1.5730 H         1 DMP1        0.0000
     51 C211       -8.5110    4.3430    0.0970 C.3       1 DMP1        0.0000
     52 H11R       -7.6320    4.2400   -0.5810 H         1 DMP1        0.0000
     53 H11S       -8.8780    5.3890    0.0090 H         1 DMP1        0.0000
     54 C212       -9.5880    3.3620   -0.4000 C.3       1 DMP1        0.0000
     55 H12R       -9.1680    2.3310   -0.3790 H         1 DMP1        0.0000
     56 H12S       -9.8270    3.6030   -1.4600 H         1 DMP1        0.0000
     57 C213      -10.8890    3.3820    0.4130 C.3       1 DMP1        0.0000
     58 H13R      -11.2970    4.4180    0.4130 H         1 DMP1        0.0000
     59 H13S      -10.6630    3.1120    1.4700 H         1 DMP1        0.0000
     60 C214      -11.9510    2.4190   -0.1250 C.3       1 DMP1        0.0000
     61 H14R      -11.5660    1.3760   -0.1170 H         1 DMP1        0.0000
     62 H14S      -12.2220    2.6830   -1.1700 H         1 DMP1        0.0000
     63 H14T      -12.8690    2.4590    0.4990 H         1 DMP1        0.0000
     64 C33        -4.7900    5.8310   -0.0610 C.3       1 DMP1        0.0000
     65 H3X        -4.9650    5.5020    0.9880 H         1 DMP1        0.0000
     66 H3Y        -5.5390    5.3170   -0.7070 H         1 DMP1        0.0000
     67 C34        -5.0140    7.3440   -0.1670 C.3       1 DMP1        0.0000
     68 H4X        -4.8600    7.6410   -1.2280 H         1 DMP1        0.0000
     69 H4Y        -4.2500    7.8790    0.4410 H         1 DMP1        0.0000
     70 C35        -6.4120    7.7870    0.2890 C.3       1 DMP1        0.0000
     71 H5X        -6.4720    7.6860    1.3950 H         1 DMP1        0.0000
     72 H5Y        -7.1830    7.1160   -0.1530 H         1 DMP1        0.0000
     73 C36        -6.7240    9.2350   -0.1200 C.3       1 DMP1        0.0000
     74 H6X        -5.8230    9.8620    0.0610 H         1 DMP1        0.0000
     75 H6Y        -7.5470    9.6360    0.5140 H         1 DMP1        0.0000
     76 C37        -7.1490    9.3390   -1.5920 C.3       1 DMP1        0.0000
     77 H7X        -8.1780    8.9280   -1.6970 H         1 DMP1        0.0000
     78 H7Y        -6.4830    8.6990   -2.2060 H         1 DMP1        0.0000
     79 C38        -7.1100   10.7710   -2.1520 C.3       1 DMP1        0.0000
     80 H8X        -6.0820   11.1890   -2.1050 H         1 DMP1        0.0000
     81 H8Y        -7.7490   11.4000   -1.4890 H         1 DMP1        0.0000
     82 C39        -7.6710   10.8780   -3.5830 C.3       1 DMP1        0.0000
     83 H9X        -7.9960   11.9340   -3.7360 H         1 DMP1        0.0000
     84 H9Y        -8.5930   10.2560   -3.6400 H         1 DMP1        0.0000
     85 C310       -6.7580   10.5090   -4.7810 C.3       1 DMP1        0.0000
     86 H10X       -6.6430   11.4170   -5.4160 H         1 DMP1        0.0000
     87 H10Y       -7.3130    9.7760   -5.4090 H         1 DMP1        0.0000
     88 C311       -5.3450    9.9470   -4.5130 C.3       1 DMP1        0.0000
     89 H11X       -5.1530    9.7440   -3.4440 H         1 DMP1        0.0000
     90 H11Y       -4.6180   10.7390   -4.8110 H         1 DMP1        0.0000
     91 C312       -5.0140    8.6720   -5.3190 C.3       1 DMP1        0.0000
     92 H12X       -3.9080    8.6470   -5.4600 H         1 DMP1        0.0000
     93 H12Y       -5.4710    8.7230   -6.3300 H         1 DMP1        0.0000
     94 C313       -5.4070    7.3570   -4.6190 C.3       1 DMP1        0.0000
     95 H13X       -4.9990    7.3740   -3.5830 H         1 DMP1        0.0000
     96 H13Y       -4.9050    6.5170   -5.1520 H         1 DMP1        0.0000
     97 C314       -6.9100    7.0610   -4.5680 C.3       1 DMP1        0.0000
     98 H14X       -7.3170    6.9390   -5.5940 H         1 DMP1        0.0000
     99 H14Y       -7.4600    7.8870   -4.0710 H         1 DMP1        0.0000
    100 H14Z       -7.1020    6.1260   -3.9970 H         1 DMP1        0.0000
@<TRIPOS>BOND
     1   93   91 1 
     2   98   97 1 
     3   92   91 1 
     4   86   85 1 
     5   87   85 1 
     6   91   94 1 
     7   91   88 1 
     8   96   94 1 
     9   90   88 1 
    10   85   88 1 
    11   85   82 1 
    12   94   97 1 
    13   94   95 1 
    14   97   99 1 
    15   97  100 1 
    16   88   89 1 
    17   83   82 1 
    18   84   82 1 
    19   82   79 1 
    20   78   76 1 
    21   79   80 1 
    22   79   76 1 
    23   79   81 1 
    24   77   76 1 
    25   76   73 1 
    26   25   24 1 
    27   56   54 1 
    28    3    1 2 
    29   68   67 1 
    30   62   60 1 
    31   20   18 1 
    32   19   18 1 
    33   66   64 1 
    34   52   51 1 
    35   21   22 1 
    36   21   18 1 
    37   22   24 1 
    38   22   23 2 
    39   24   64 1 
    40   24   26 1 
    41   18   10 1 
    42   54   55 1 
    43   54   51 1 
    44   54   57 1 
    45   67   64 1 
    46   67   70 1 
    47   67   69 1 
    48   72   70 1 
    49   60   61 1 
    50   60   57 1 
    51   60   63 1 
    52   73   74 1 
    53   73   70 1 
    54   73   75 1 
    55   64   65 1 
    56    5    4 1 
    57    6    1 1 
    58    6    7 1 
    59   53   51 1 
    60    1    4 1 
    61    1    2 1 
    62   51   48 1 
    63   70   71 1 
    64   58   57 1 
    65   57   59 1 
    66   10    7 1 
    67   10   11 1 
    68   10   12 1 
    69    7    9 1 
    70    7    8 1 
    71   48   50 1 
    72   48   49 1 
    73   48   45 1 
    74   12   13 1 
    75   46   45 1 
    76   47   45 1 
    77   45   42 1 
    78   13   14 2 
    79   13   15 1 
    80   16   15 1 
    81   17   15 1 
    82   15   27 1 
    83   40   39 1 
    84   41   39 1 
    85   42   44 1 
    86   42   39 1 
    87   42   43 1 
    88   39   36 1 
    89   32   30 1 
    90   27   29 1 
    91   27   28 1 
    92   27   30 1 
    93   34   33 1 
    94   36   33 1 
    95   36   38 1 
    96   36   37 1 
    97   30   33 1 
    98   30   31 1 
    99   33   35 1 
