@<TRIPOS>MOLECULE
C:\Users\Praveer\PycharmProjects\pdb_to_mol2_converter\data\pdb\dmpc.pdb
  118   117     0     0     0
SMALL
GASTEIGER

@<TRIPOS>ATOM
      1 N           1.4850   -0.0020   -0.0040 N.4       1 DMP1        0.0000
      2 C13        -0.0120   -0.0040   -0.0080 C.3       1 DMP1        0.0000
      3 H13A       -0.3770    0.5240    0.8680 H         1 DMP1        0.0000
      4 H13B       -0.4000   -1.0130    0.0250 H         1 DMP1        0.0000
      5 H13C       -0.4020    0.4960   -0.8840 H         1 DMP1        0.0000
      6 C14         1.9850   -0.6980    1.2310 C.3       1 DMP1        0.0000
      7 H14A        1.6500   -1.7150    1.3150 H         1 DMP1        0.0000
      8 H14B        1.7010   -0.1460    2.1320 H         1 DMP1        0.0000
      9 H14C        3.0760   -0.6660    1.2670 H         1 DMP1        0.0000
     10 C15         2.0160   -0.7350   -1.1980 C.3       1 DMP1        0.0000
     11 H15A        1.6980   -0.2700   -2.1210 H         1 DMP1        0.0000
     12 H15B        1.6840   -1.7650   -1.1970 H         1 DMP1        0.0000
     13 H15C        3.1030   -0.7380   -1.1750 H         1 DMP1        0.0000
     14 C12         2.0200    1.4220    0.0040 C.3       1 DMP1        0.0000
     15 H12A        1.8190    1.9280   -0.9280 H         1 DMP1        0.0000
     16 H12B        3.1110    1.3760    0.0940 H         1 DMP1        0.0000
     17 C11         1.5710    2.3280    1.1690 C.3       1 DMP1        0.0000
     18 H11A        0.9570    1.7930    1.9280 H         1 DMP1        0.0000
     19 H11B        0.9360    3.1490    0.7670 H         1 DMP1        0.0000
     20 P           3.7170    1.9350    2.5560 P.3       1 DMP1        0.0000
     21 O13         2.9180    1.1090    3.4870 O.3       1 DMP1        0.0000
     22 O14         4.4920    1.1870    1.5370 O.2       1 DMP1        0.0000
     23 O11         4.6580    2.9210    3.3560 O.3       1 DMP1        0.0000
     24 O12         2.7290    2.8990    1.7700 O.3       1 DMP1        0.0000
     25 C1          5.6410    2.3500    4.2260 C.3       1 DMP1        0.0000
     26 HA          6.2210    1.5440    3.7140 H         1 DMP1        0.0000
     27 HB          5.1480    1.9220    5.1290 H         1 DMP1        0.0000
     28 C2          6.6620    3.4240    4.6830 C.3       1 DMP1        0.0000
     29 HS          6.0790    4.2220    5.2030 H         1 DMP1        0.0000
     30 O21         7.3420    3.9200    3.5130 O.3       1 DMP1        0.0000
     31 C21         7.7060    5.1860    3.5690 C.2       1 DMP1        0.0000
     32 O22         7.5290    5.9510    4.5010 O.2       1 DMP1        0.0000
     33 C22         8.4210    5.5490    2.2670 C.3       1 DMP1        0.0000
     34 H2R         7.6810    5.4830    1.4430 H         1 DMP1        0.0000
     35 H2S         9.2170    4.7960    2.0930 H         1 DMP1        0.0000
     36 C3          7.6880    2.8160    5.6840 C.3       1 DMP1        0.0000
     37 HX          8.1670    1.9550    5.1650 H         1 DMP1        0.0000
     38 HY          7.1470    2.4000    6.5650 H         1 DMP1        0.0000
     39 O31         8.7250    3.7490    6.0540 O.3       1 DMP1        0.0000
     40 C31         8.4350    4.5400    7.0840 C.2       1 DMP1        0.0000
     41 O32         7.4570    4.4430    7.8020 O.2       1 DMP1        0.0000
     42 C32         9.5520    5.5740    7.2260 C.3       1 DMP1        0.0000
     43 H2X         9.4840    6.2550    6.3520 H         1 DMP1        0.0000
     44 H2Y        10.5240    5.0400    7.1830 H         1 DMP1        0.0000
     45 C23         9.0350    6.9650    2.3240 C.3       1 DMP1        0.0000
     46 H3R         9.7350    7.0330    3.1880 H         1 DMP1        0.0000
     47 H3S         8.2300    7.7180    2.4870 H         1 DMP1        0.0000
     48 C24         9.8020    7.3260    1.0450 C.3       1 DMP1        0.0000
     49 H4R         9.1060    7.2980    0.1780 H         1 DMP1        0.0000
     50 H4S        10.5940    6.5640    0.8690 H         1 DMP1        0.0000
     51 C25        10.4540    8.7130    1.1290 C.3       1 DMP1        0.0000
     52 H5R        11.1310    8.7400    2.0120 H         1 DMP1        0.0000
     53 H5S         9.6630    9.4800    1.2880 H         1 DMP1        0.0000
     54 C26        11.2600    9.0710   -0.1270 C.3       1 DMP1        0.0000
     55 H6R        10.5830    9.0740   -1.0100 H         1 DMP1        0.0000
     56 H6S        12.0330    8.2880   -0.2960 H         1 DMP1        0.0000
     57 C27        11.9500   10.4370   -0.0100 C.3       1 DMP1        0.0000
     58 H7R        12.6120   10.4320    0.8850 H         1 DMP1        0.0000
     59 H7S        11.1790   11.2250    0.1440 H         1 DMP1        0.0000
     60 C28        12.7890   10.7860   -1.2470 C.3       1 DMP1        0.0000
     61 H8R        12.1290   10.8160   -2.1420 H         1 DMP1        0.0000
     62 H8S        13.5450    9.9850   -1.4100 H         1 DMP1        0.0000
     63 C29        13.5130   12.1320   -1.1060 C.3       1 DMP1        0.0000
     64 H9R        14.1620   12.1010   -0.2020 H         1 DMP1        0.0000
     65 H9S        12.7600   12.9380   -0.9540 H         1 DMP1        0.0000
     66 C210       14.3750   12.4720   -2.3290 C.3       1 DMP1        0.0000
     67 H10R       13.7270   12.5210   -3.2320 H         1 DMP1        0.0000
     68 H10S       15.1170   11.6570   -2.4880 H         1 DMP1        0.0000
     69 C211       15.1230   13.8040   -2.1720 C.3       1 DMP1        0.0000
     70 H11R       15.7660   13.7550   -1.2640 H         1 DMP1        0.0000
     71 H11S       14.3830   14.6220   -2.0190 H         1 DMP1        0.0000
     72 C212       15.9980   14.1370   -3.3880 C.3       1 DMP1        0.0000
     73 H12R       15.3560   14.1950   -4.2950 H         1 DMP1        0.0000
     74 H12S       16.7320   13.3150   -3.5450 H         1 DMP1        0.0000
     75 C213       16.7580   15.4600   -3.2250 C.3       1 DMP1        0.0000
     76 H13R       17.3920   15.3990   -2.3120 H         1 DMP1        0.0000
     77 H13S       16.0200   16.2800   -3.0640 H         1 DMP1        0.0000
     78 C214       17.6390   15.8060   -4.4280 C.3       1 DMP1        0.0000
     79 H14R       17.0230   15.8980   -5.3480 H         1 DMP1        0.0000
     80 H14S       18.3990   15.0120   -4.5930 H         1 DMP1        0.0000
     81 H14T       18.1680   16.7690   -4.2610 H         1 DMP1        0.0000
     82 C33         9.4620    6.3950    8.5320 C.3       1 DMP1        0.0000
     83 H3X         9.5090    5.7110    9.4090 H         1 DMP1        0.0000
     84 H3Y         8.4870    6.9320    8.5740 H         1 DMP1        0.0000
     85 C34        10.6030    7.4160    8.6300 C.3       1 DMP1        0.0000
     86 H4X        10.5280    8.1290    7.7780 H         1 DMP1        0.0000
     87 H4Y        11.5750    6.8800    8.5370 H         1 DMP1        0.0000
     88 C35        10.6010    8.2050    9.9470 C.3       1 DMP1        0.0000
     89 H5X        10.6640    7.4900   10.7980 H         1 DMP1        0.0000
     90 H5Y         9.6440    8.7640   10.0430 H         1 DMP1        0.0000
     91 C36        11.7770    9.1880   10.0300 C.3       1 DMP1        0.0000
     92 H6X        11.6960    9.9260    9.2010 H         1 DMP1        0.0000
     93 H6Y        12.7270    8.6230    9.8860 H         1 DMP1        0.0000
     94 C37        11.8480    9.9360   11.3680 C.3       1 DMP1        0.0000
     95 H7X        11.9090    9.1940   12.1950 H         1 DMP1        0.0000
     96 H7Y        10.9160   10.5270   11.5100 H         1 DMP1        0.0000
     97 C38        13.0630   10.8720   11.4450 C.3       1 DMP1        0.0000
     98 H8X        12.9910   11.6310   10.6340 H         1 DMP1        0.0000
     99 H8Y        13.9870   10.2760   11.2680 H         1 DMP1        0.0000
    100 C39        13.1860   11.5870   12.7970 C.3       1 DMP1        0.0000
    101 H9X        13.2400   10.8260   13.6070 H         1 DMP1        0.0000
    102 H9Y        12.2760   12.2040   12.9710 H         1 DMP1        0.0000
    103 C310       14.4290   12.4850   12.8700 C.3       1 DMP1        0.0000
    104 H10X       14.3710   13.2550   12.0680 H         1 DMP1        0.0000
    105 H10Y       15.3340   11.8660   12.6780 H         1 DMP1        0.0000
    106 C311       14.5820   13.1830   14.2280 C.3       1 DMP1        0.0000
    107 H11X       14.6320   12.4130   15.0300 H         1 DMP1        0.0000
    108 H11Y       13.6850   13.8140   14.4190 H         1 DMP1        0.0000
    109 C312       15.8400   14.0610   14.2980 C.3       1 DMP1        0.0000
    110 H12X       15.7910   14.8330   13.4990 H         1 DMP1        0.0000
    111 H12Y       16.7360   13.4290   14.1020 H         1 DMP1        0.0000
    112 C313       16.0060   14.7550   15.6560 C.3       1 DMP1        0.0000
    113 H13X       16.0470   13.9770   16.4530 H         1 DMP1        0.0000
    114 H13Y       15.1070   15.3830   15.8500 H         1 DMP1        0.0000
    115 C314       17.2600   15.6290   15.7400 C.3       1 DMP1        0.0000
    116 H14X       17.2300   16.4270   14.9680 H         1 DMP1        0.0000
    117 H14Y       18.1730   15.0160   15.5750 H         1 DMP1        0.0000
    118 H14Z       17.3360   16.1090   16.7400 H         1 DMP1        0.0000
@<TRIPOS>BOND
     1   79   78 1 
     2   80   78 1 
     3   78   81 1 
     4   78   75 1 
     5   73   72 1 
     6   74   72 1 
     7   72   75 1 
     8   72   69 1 
     9   67   66 1 
    10   75   77 1 
    11   75   76 1 
    12   68   66 1 
    13   66   69 1 
    14   66   63 1 
    15   69   71 1 
    16   69   70 1 
    17   61   60 1 
    18   11   10 1 
    19   62   60 1 
    20   60   63 1 
    21   60   57 1 
    22   10   12 1 
    23   10   13 1 
    24   10    1 1 
    25   63   65 1 
    26   63   64 1 
    27   55   54 1 
    28   15   14 1 
    29    5    2 1 
    30   56   54 1 
    31   54   57 1 
    32   54   51 1 
    33   57   59 1 
    34   57   58 1 
    35    2    1 1 
    36    2    4 1 
    37    2    3 1 
    38    1   14 1 
    39    1    6 1 
    40   14   16 1 
    41   14   17 1 
    42   49   48 1 
    43   19   17 1 
    44   50   48 1 
    45   48   51 1 
    46   48   45 1 
    47   51   53 1 
    48   51   52 1 
    49   17   24 1 
    50   17   18 1 
    51    6    9 1 
    52    6    7 1 
    53    6    8 1 
    54   34   33 1 
    55   22   20 2 
    56   24   20 1 
    57   35   33 1 
    58   33   45 1 
    59   33   31 1 
    60   45   47 1 
    61   45   46 1 
    62   20   23 1 
    63   20   21 1 
    64   23   25 1 
    65   30   31 1 
    66   30   28 1 
    67   31   32 2 
    68   26   25 1 
    69   25   28 1 
    70   25   27 1 
    71   28   29 1 
    72   28   36 1 
    73   37   36 1 
    74   36   39 1 
    75   36   38 1 
    76   39   40 1 
    77   43   42 1 
    78   40   42 1 
    79   40   41 2 
    80   44   42 1 
    81   42   82 1 
    82   86   85 1 
    83   82   84 1 
    84   82   85 1 
    85   82   83 1 
    86   87   85 1 
    87   85   88 1 
    88   92   91 1 
    89   93   91 1 
    90   88   91 1 
    91   88   90 1 
    92   88   89 1 
    93   91   94 1 
    94   98   97 1 
    95   99   97 1 
    96   94   97 1 
    97   94   96 1 
    98   94   95 1 
    99   97  100 1 
   100  104  103 1 
   101  105  103 1 
   102  100  103 1 
   103  100  102 1 
   104  100  101 1 
   105  103  106 1 
   106  110  109 1 
   107  111  109 1 
   108  106  109 1 
   109  106  108 1 
   110  106  107 1 
   111  109  112 1 
   112  116  115 1 
   113  117  115 1 
   114  112  115 1 
   115  112  114 1 
   116  112  113 1 
   117  115  118 1 
