@<TRIPOS>MOLECULE
C:\Users\Praveer\PycharmProjects\pdb_to_mol2_converter\data\pdb\dmpe.pdb
  109   108     0     0     0
SMALL
GASTEIGER

@<TRIPOS>ATOM
      1 N           0.0130   -0.0010   -0.0180 N.4       1 DMP1        0.0000
      2 HN1        -0.3880   -0.8890    0.3770 H         1 DMP1        0.0000
      3 HN2        -0.3880    0.2530   -0.9370 H         1 DMP1        0.0000
      4 HN3        -0.2500    0.7390    0.6870 H         1 DMP1        0.0000
      5 C12         1.5170   -0.0040    0.0200 C.3       1 DMP1        0.0000
      6 H12A        1.9000   -0.5870   -0.8390 H         1 DMP1        0.0000
      7 H12B        1.8160   -0.5100    0.9640 H         1 DMP1        0.0000
      8 C11         2.0540    1.4440    0.0150 C.3       1 DMP1        0.0000
      9 H11A        2.0490    1.8190   -1.0340 H         1 DMP1        0.0000
     10 H11B        3.1180    1.4520    0.3520 H         1 DMP1        0.0000
     11 P           1.0950    2.1270    2.3660 P.3       1 DMP1        0.0000
     12 O13         0.8570    3.3990    3.0640 O.3       1 DMP1        0.0000
     13 O14         2.1440    1.2070    2.8480 O.2       1 DMP1        0.0000
     14 O11        -0.2640    1.2970    2.2910 O.3       1 DMP1        0.0000
     15 O12         1.2680    2.3410    0.8050 O.3       1 DMP1        0.0000
     16 C1         -0.8630    0.8490    3.5120 C.3       1 DMP1        0.0000
     17 HA         -1.9570    0.7270    3.3520 H         1 DMP1        0.0000
     18 HB         -0.7660    1.6070    4.3260 H         1 DMP1        0.0000
     19 C2         -0.2790   -0.5120    3.9940 C.3       1 DMP1        0.0000
     20 HS          0.5990   -0.7790    3.3590 H         1 DMP1        0.0000
     21 O21        -1.2800   -1.5410    3.9350 O.3       1 DMP1        0.0000
     22 C21        -1.5440   -2.0620    2.7600 C.2       1 DMP1        0.0000
     23 O22        -1.0070   -1.7820    1.6980 O.2       1 DMP1        0.0000
     24 C22        -2.6410   -3.1080    2.9450 C.3       1 DMP1        0.0000
     25 H2R        -3.5560   -2.5810    3.2880 H         1 DMP1        0.0000
     26 H2S        -2.3160   -3.7890    3.7580 H         1 DMP1        0.0000
     27 C3          0.2580   -0.4090    5.4500 C.3       1 DMP1        0.0000
     28 HX         -0.5580   -0.0480    6.1190 H         1 DMP1        0.0000
     29 HY          1.0500    0.3750    5.4500 H         1 DMP1        0.0000
     30 O31         0.8440   -1.6530    5.8930 O.3       1 DMP1        0.0000
     31 C31         0.0490   -2.4650    6.5810 C.2       1 DMP1        0.0000
     32 O32        -1.1030   -2.2420    6.9040 O.2       1 DMP1        0.0000
     33 C32         0.8300   -3.7370    6.9100 C.3       1 DMP1        0.0000
     34 H2X         1.6620   -3.4560    7.5870 H         1 DMP1        0.0000
     35 H2Y         1.2600   -4.1310    5.9650 H         1 DMP1        0.0000
     36 C23        -2.9500   -3.9080    1.6580 C.3       1 DMP1        0.0000
     37 H3R        -2.0370   -4.4270    1.2910 H         1 DMP1        0.0000
     38 H3S        -3.2850   -3.2010    0.8630 H         1 DMP1        0.0000
     39 C24        -4.0630   -4.9440    1.8790 C.3       1 DMP1        0.0000
     40 H4R        -4.4440   -5.3110    0.9000 H         1 DMP1        0.0000
     41 H4S        -4.9090   -4.4370    2.3950 H         1 DMP1        0.0000
     42 C25        -3.6140   -6.1560    2.7110 C.3       1 DMP1        0.0000
     43 H5R        -2.9040   -5.8200    3.4980 H         1 DMP1        0.0000
     44 H5S        -3.0710   -6.8800    2.0650 H         1 DMP1        0.0000
     45 C26        -4.7830   -6.8520    3.4200 C.3       1 DMP1        0.0000
     46 H6R        -5.4900   -7.2820    2.6770 H         1 DMP1        0.0000
     47 H6S        -5.3420   -6.0740    3.9890 H         1 DMP1        0.0000
     48 C27        -4.3230   -7.9430    4.4020 C.3       1 DMP1        0.0000
     49 H7R        -3.2540   -7.7910    4.6730 H         1 DMP1        0.0000
     50 H7S        -4.3930   -8.9240    3.8820 H         1 DMP1        0.0000
     51 C28        -5.1470   -7.9860    5.7010 C.3       1 DMP1        0.0000
     52 H8R        -5.1860   -9.0420    6.0560 H         1 DMP1        0.0000
     53 H8S        -6.1920   -7.6710    5.4870 H         1 DMP1        0.0000
     54 C29        -4.5660   -7.1390    6.8530 C.3       1 DMP1        0.0000
     55 H9R        -3.5820   -7.5650    7.1500 H         1 DMP1        0.0000
     56 H9S        -5.2470   -7.2300    7.7280 H         1 DMP1        0.0000
     57 C210       -4.3710   -5.6500    6.5240 C.3       1 DMP1        0.0000
     58 H10R       -5.3340   -5.2130    6.1810 H         1 DMP1        0.0000
     59 H10S       -3.6420   -5.5630    5.6880 H         1 DMP1        0.0000
     60 C211       -3.8310   -4.8200    7.7010 C.3       1 DMP1        0.0000
     61 H11R       -3.5160   -3.8220    7.3150 H         1 DMP1        0.0000
     62 H11S       -2.9280   -5.3180    8.1150 H         1 DMP1        0.0000
     63 C212       -4.8620   -4.5960    8.8170 C.3       1 DMP1        0.0000
     64 H12R       -5.1100   -5.5690    9.2940 H         1 DMP1        0.0000
     65 H12S       -5.7950   -4.1950    8.3600 H         1 DMP1        0.0000
     66 C213       -4.3880   -3.6130    9.8980 C.3       1 DMP1        0.0000
     67 H13R       -5.2280   -3.4400   10.6090 H         1 DMP1        0.0000
     68 H13S       -4.1570   -2.6370    9.4120 H         1 DMP1        0.0000
     69 C214       -3.1600   -4.0810   10.6870 C.3       1 DMP1        0.0000
     70 H14R       -2.2780   -4.1750   10.0190 H         1 DMP1        0.0000
     71 H14S       -3.3540   -5.0690   11.1560 H         1 DMP1        0.0000
     72 H14T       -2.9120   -3.3530   11.4880 H         1 DMP1        0.0000
     73 C33        -0.0440   -4.8220    7.5770 C.3       1 DMP1        0.0000
     74 H3X        -0.8800   -5.1030    6.8970 H         1 DMP1        0.0000
     75 H3Y        -0.4900   -4.4240    8.5160 H         1 DMP1        0.0000
     76 C34         0.7710   -6.0790    7.9090 C.3       1 DMP1        0.0000
     77 H4X         1.6000   -5.7900    8.5930 H         1 DMP1        0.0000
     78 H4Y         1.2230   -6.4750    6.9720 H         1 DMP1        0.0000
     79 C35        -0.0660   -7.1900    8.5620 C.3       1 DMP1        0.0000
     80 H5X        -0.9500   -7.3940    7.9160 H         1 DMP1        0.0000
     81 H5Y        -0.4500   -6.8300    9.5420 H         1 DMP1        0.0000
     82 C36         0.7080   -8.5080    8.7550 C.3       1 DMP1        0.0000
     83 H6X         1.0200   -8.8730    7.7500 H         1 DMP1        0.0000
     84 H6Y         0.0280   -9.2730    9.1910 H         1 DMP1        0.0000
     85 C37         1.9630   -8.3980    9.6400 C.3       1 DMP1        0.0000
     86 H7X         2.6180   -7.5940    9.2440 H         1 DMP1        0.0000
     87 H7Y         2.5390   -9.3480    9.5710 H         1 DMP1        0.0000
     88 C38         1.6500   -8.1400   11.1230 C.3       1 DMP1        0.0000
     89 H8X         1.1590   -9.0500   11.5360 H         1 DMP1        0.0000
     90 H8Y         0.9210   -7.3080   11.2180 H         1 DMP1        0.0000
     91 C39         2.8940   -7.8170   11.9690 C.3       1 DMP1        0.0000
     92 H9X         3.6430   -8.6290   11.8320 H         1 DMP1        0.0000
     93 H9Y         2.5980   -7.8140   13.0430 H         1 DMP1        0.0000
     94 C310        3.5550   -6.4620   11.6550 C.3       1 DMP1        0.0000
     95 H10X        3.9230   -6.4550   10.6060 H         1 DMP1        0.0000
     96 H10Y        4.4420   -6.3430   12.3180 H         1 DMP1        0.0000
     97 C311        2.6250   -5.2570   11.8700 C.3       1 DMP1        0.0000
     98 H11X        2.2130   -5.3080   12.9020 H         1 DMP1        0.0000
     99 H11Y        1.7720   -5.3130   11.1580 H         1 DMP1        0.0000
    100 C312        3.3350   -3.9110   11.6680 C.3       1 DMP1        0.0000
    101 H12X        3.7910   -3.8990   10.6520 H         1 DMP1        0.0000
    102 H12Y        4.1600   -3.8180   12.4090 H         1 DMP1        0.0000
    103 C313        2.4010   -2.6970   11.8020 C.3       1 DMP1        0.0000
    104 H13X        1.5890   -2.7860   11.0450 H         1 DMP1        0.0000
    105 H13Y        2.9830   -1.7790   11.5580 H         1 DMP1        0.0000
    106 C314        1.7760   -2.5270   13.1910 C.3       1 DMP1        0.0000
    107 H14X        2.5680   -2.4630   13.9670 H         1 DMP1        0.0000
    108 H14Y        1.1140   -3.3850   13.4340 H         1 DMP1        0.0000
    109 H14Z        1.1680   -1.5980   13.2340 H         1 DMP1        0.0000
@<TRIPOS>BOND
     1    9    8 1 
     2    3    1 1 
     3    6    5 1 
     4    1    5 1 
     5    1    2 1 
     6    1    4 1 
     7    8    5 1 
     8    8   10 1 
     9    8   15 1 
    10    5    7 1 
    11   15   11 1 
    12   38   36 1 
    13   40   39 1 
    14   37   36 1 
    15   36   39 1 
    16   36   24 1 
    17   23   22 2 
    18   39   41 1 
    19   39   42 1 
    20   44   42 1 
    21   14   11 1 
    22   14   16 1 
    23   11   13 2 
    24   11   12 1 
    25   46   45 1 
    26   42   45 1 
    27   42   43 1 
    28   22   24 1 
    29   22   21 1 
    30   24   25 1 
    31   24   26 1 
    32   17   16 1 
    33   20   19 1 
    34   45   47 1 
    35   45   48 1 
    36   16   19 1 
    37   16   18 1 
    38   50   48 1 
    39   21   19 1 
    40   19   27 1 
    41   48   49 1 
    42   48   51 1 
    43   27   29 1 
    44   27   30 1 
    45   27   28 1 
    46   53   51 1 
    47   59   57 1 
    48   51   52 1 
    49   51   54 1 
    50   30   31 1 
    51   35   33 1 
    52   58   57 1 
    53   57   54 1 
    54   57   60 1 
    55   31   32 2 
    56   31   33 1 
    57   54   55 1 
    58   54   56 1 
    59   74   73 1 
    60   33   73 1 
    61   33   34 1 
    62   78   76 1 
    63   61   60 1 
    64   73   76 1 
    65   73   75 1 
    66   60   62 1 
    67   60   63 1 
    68   83   82 1 
    69   76   79 1 
    70   76   77 1 
    71   80   79 1 
    72   65   63 1 
    73   79   82 1 
    74   79   81 1 
    75   82   84 1 
    76   82   85 1 
    77   63   64 1 
    78   63   66 1 
    79   86   85 1 
    80   68   66 1 
    81   87   85 1 
    82   85   88 1 
    83   66   67 1 
    84   66   69 1 
    85   70   69 1 
    86   95   94 1 
    87  101  100 1 
    88   69   71 1 
    89   69   72 1 
    90  104  103 1 
    91   88   90 1 
    92   88   89 1 
    93   88   91 1 
    94   99   97 1 
    95  105  103 1 
    96   94   97 1 
    97   94   91 1 
    98   94   96 1 
    99  100  103 1 
   100  100   97 1 
   101  100  102 1 
   102  103  106 1 
   103   92   91 1 
   104   97   98 1 
   105   91   93 1 
   106  106  109 1 
   107  106  108 1 
   108  106  107 1 
