@<TRIPOS>MOLECULE
C:\Users\Praveer\PycharmProjects\pdb_to_mol2_converter\data\pdb\dmpg.pdb
  111   110     0     0     0
SMALL
GASTEIGER

@<TRIPOS>ATOM
      1 C13         0.0340   -0.0250    0.0340 C.3       1 DMP1        0.0000
      2 H13A       -0.3350   -1.0330   -0.2550 H         1 DMP1        0.0000
      3 H13B       -0.3350    0.1970    1.0600 H         1 DMP1        0.0000
      4 OC3        -0.4800    0.9690   -0.8500 O.3       1 DMP1        0.0000
      5 HO3        -0.0870    1.7900   -0.5060 H         1 DMP1        0.0000
      6 C12         1.5830   -0.0060    0.0330 C.3       1 DMP1        0.0000
      7 H12A        1.9420   -0.5270   -0.8830 H         1 DMP1        0.0000
      8 OC2         2.0800   -0.7080    1.1670 O.3       1 DMP1        0.0000
      9 HO2         2.0380   -0.0470    1.8860 H         1 DMP1        0.0000
     10 C11         2.1600    1.4370    0.0250 C.3       1 DMP1        0.0000
     11 H11A        2.0950    1.8090   -1.0220 H         1 DMP1        0.0000
     12 H11B        3.2470    1.4170    0.2810 H         1 DMP1        0.0000
     13 P           1.8780    2.6640    2.3240 P.3       1 DMP1        0.0000
     14 O13         0.8770    3.5350    2.9730 O.3       1 DMP1        0.0000
     15 O14         3.2830    3.1140    2.2860 O.2       1 DMP1        0.0000
     16 O12         1.3980    2.3250    0.8510 O.3       1 DMP1        0.0000
     17 O11         1.8270    1.2170    2.9910 O.3       1 DMP1        0.0000
     18 C1          0.7050    0.8890    3.8160 C.3       1 DMP1        0.0000
     19 HA         -0.2380    0.9050    3.2240 H         1 DMP1        0.0000
     20 HB          0.6010    1.6200    4.6550 H         1 DMP1        0.0000
     21 C2          0.8950   -0.5130    4.4480 C.3       1 DMP1        0.0000
     22 HS          0.9170   -1.2730    3.6310 H         1 DMP1        0.0000
     23 O21        -0.1680   -0.7660    5.3820 O.3       1 DMP1        0.0000
     24 C21        -1.3230   -1.1010    4.8420 C.2       1 DMP1        0.0000
     25 O22        -1.5300   -1.3230    3.6630 O.2       1 DMP1        0.0000
     26 C22        -2.3710   -1.1640    5.9540 C.3       1 DMP1        0.0000
     27 H2R        -2.5500   -0.1240    6.2960 H         1 DMP1        0.0000
     28 H2S        -1.9400   -1.7430    6.7970 H         1 DMP1        0.0000
     29 C3          2.2520   -0.6090    5.2000 C.3       1 DMP1        0.0000
     30 HX          2.2330    0.0710    6.0820 H         1 DMP1        0.0000
     31 HY          3.0410   -0.2270    4.5150 H         1 DMP1        0.0000
     32 O31         2.5810   -1.9730    5.5420 O.3       1 DMP1        0.0000
     33 C31         2.2020   -2.3980    6.7370 C.2       1 DMP1        0.0000
     34 O32         1.6430   -1.7440    7.5970 O.2       1 DMP1        0.0000
     35 C32         2.6270   -3.8610    6.8800 C.3       1 DMP1        0.0000
     36 H2X         3.6940   -3.8700    7.1800 H         1 DMP1        0.0000
     37 H2Y         2.5340   -4.3510    5.8870 H         1 DMP1        0.0000
     38 C23        -3.7050   -1.7970    5.4940 C.3       1 DMP1        0.0000
     39 H3R        -3.5440   -2.8770    5.2730 H         1 DMP1        0.0000
     40 H3S        -4.0450   -1.3110    4.5500 H         1 DMP1        0.0000
     41 C24        -4.8290   -1.6550    6.5340 C.3       1 DMP1        0.0000
     42 H4R        -5.7400   -2.1680    6.1510 H         1 DMP1        0.0000
     43 H4S        -5.0760   -0.5760    6.6540 H         1 DMP1        0.0000
     44 C25        -4.4700   -2.2330    7.9110 C.3       1 DMP1        0.0000
     45 H5R        -3.6050   -1.6720    8.3290 H         1 DMP1        0.0000
     46 H5S        -4.1610   -3.2940    7.7910 H         1 DMP1        0.0000
     47 C26        -5.6260   -2.1440    8.9180 C.3       1 DMP1        0.0000
     48 H6R        -6.4790   -2.7620    8.5630 H         1 DMP1        0.0000
     49 H6S        -5.9700   -1.0860    8.9590 H         1 DMP1        0.0000
     50 C27        -5.2290   -2.5790   10.3400 C.3       1 DMP1        0.0000
     51 H7R        -6.0600   -2.3200   11.0350 H         1 DMP1        0.0000
     52 H7S        -4.3420   -1.9880   10.6610 H         1 DMP1        0.0000
     53 C28        -4.9280   -4.0820   10.4780 C.3       1 DMP1        0.0000
     54 H8R        -5.0250   -4.5810    9.4880 H         1 DMP1        0.0000
     55 H8S        -5.6970   -4.5330   11.1460 H         1 DMP1        0.0000
     56 C29        -3.5360   -4.3890   11.0580 C.3       1 DMP1        0.0000
     57 H9R        -3.4880   -5.4750   11.3010 H         1 DMP1        0.0000
     58 H9S        -3.4020   -3.8290   12.0090 H         1 DMP1        0.0000
     59 C210       -2.3860   -4.0660   10.0890 C.3       1 DMP1        0.0000
     60 H10R       -2.3960   -2.9890    9.8160 H         1 DMP1        0.0000
     61 H10S       -2.5680   -4.6460    9.1550 H         1 DMP1        0.0000
     62 C211       -0.9940   -4.4400   10.6260 C.3       1 DMP1        0.0000
     63 H11R       -0.3980   -4.8330    9.7710 H         1 DMP1        0.0000
     64 H11S       -1.0830   -5.2590   11.3720 H         1 DMP1        0.0000
     65 C212       -0.2010   -3.2630   11.2210 C.3       1 DMP1        0.0000
     66 H12R       -0.0560   -2.4860   10.4370 H         1 DMP1        0.0000
     67 H12S        0.8090   -3.6320   11.5100 H         1 DMP1        0.0000
     68 C213       -0.8550   -2.6190   12.4500 C.3       1 DMP1        0.0000
     69 H13R       -1.0620   -3.4130   13.2040 H         1 DMP1        0.0000
     70 H13S       -1.8310   -2.1780   12.1480 H         1 DMP1        0.0000
     71 C214        0.0050   -1.5270   13.0930 C.3       1 DMP1        0.0000
     72 H14R        0.2150   -0.7180   12.3600 H         1 DMP1        0.0000
     73 H14S        0.9750   -1.9480   13.4360 H         1 DMP1        0.0000
     74 H14T       -0.5170   -1.0840   13.9680 H         1 DMP1        0.0000
     75 C33         1.7860   -4.6370    7.9180 C.3       1 DMP1        0.0000
     76 H3X         0.7160   -4.6260    7.6100 H         1 DMP1        0.0000
     77 H3Y         1.8560   -4.1420    8.9140 H         1 DMP1        0.0000
     78 C34         2.2550   -6.0920    8.0490 C.3       1 DMP1        0.0000
     79 H4X         3.2980   -6.0950    8.4350 H         1 DMP1        0.0000
     80 H4Y         2.2680   -6.5610    7.0390 H         1 DMP1        0.0000
     81 C35         1.3590   -6.9370    8.9680 C.3       1 DMP1        0.0000
     82 H5X         0.3290   -6.9330    8.5440 H         1 DMP1        0.0000
     83 H5Y         1.3080   -6.4640    9.9720 H         1 DMP1        0.0000
     84 C36         1.8270   -8.3970    9.1010 C.3       1 DMP1        0.0000
     85 H6X         2.0210   -8.7960    8.0800 H         1 DMP1        0.0000
     86 H6Y         1.0100   -9.0060    9.5490 H         1 DMP1        0.0000
     87 C37         3.0910   -8.5720    9.9600 C.3       1 DMP1        0.0000
     88 H7X         3.8540   -7.8270    9.6520 H         1 DMP1        0.0000
     89 H7Y         3.5230   -9.5810    9.7680 H         1 DMP1        0.0000
     90 C38         2.8190   -8.4500   11.4690 C.3       1 DMP1        0.0000
     91 H8X         2.2620   -9.3610   11.7880 H         1 DMP1        0.0000
     92 H8Y         2.1640   -7.5770   11.6780 H         1 DMP1        0.0000
     93 C39         4.0990   -8.3210   12.3120 C.3       1 DMP1        0.0000
     94 H9X         4.9580   -8.7610   11.7600 H         1 DMP1        0.0000
     95 H9Y         3.9640   -8.9140   13.2460 H         1 DMP1        0.0000
     96 C310        4.4220   -6.8740   12.7290 C.3       1 DMP1        0.0000
     97 H10X        5.3360   -6.8800   13.3640 H         1 DMP1        0.0000
     98 H10Y        3.5820   -6.4970   13.3530 H         1 DMP1        0.0000
     99 C311        4.6450   -5.9130   11.5500 C.3       1 DMP1        0.0000
    100 H11X        3.7180   -5.8550   10.9370 H         1 DMP1        0.0000
    101 H11Y        5.4520   -6.3280   10.9040 H         1 DMP1        0.0000
    102 C312        5.0380   -4.4890   11.9780 C.3       1 DMP1        0.0000
    103 H12X        5.2690   -3.8960   11.0640 H         1 DMP1        0.0000
    104 H12Y        5.9620   -4.5320   12.5950 H         1 DMP1        0.0000
    105 C313        3.9390   -3.7570   12.7620 C.3       1 DMP1        0.0000
    106 H13X        3.7300   -4.3090   13.7050 H         1 DMP1        0.0000
    107 H13Y        3.0050   -3.7650   12.1560 H         1 DMP1        0.0000
    108 C314        4.2980   -2.3090   13.1070 C.3       1 DMP1        0.0000
    109 H14X        4.4680   -1.7200   12.1800 H         1 DMP1        0.0000
    110 H14Y        5.2230   -2.2730   13.7220 H         1 DMP1        0.0000
    111 H14Z        3.4760   -1.8300   13.6810 H         1 DMP1        0.0000
@<TRIPOS>BOND
     1   11   10 1 
     2    7    6 1 
     3    4    5 1 
     4    4    1 1 
     5    2    1 1 
     6   10    6 1 
     7   10   12 1 
     8   10   16 1 
     9    6    1 1 
    10    6    8 1 
    11    1    3 1 
    12   16   13 1 
    13    8    9 1 
    14   15   13 2 
    15   13   14 1 
    16   13   17 1 
    17   17   18 1 
    18   19   18 1 
    19   22   21 1 
    20   25   24 2 
    21   18   21 1 
    22   18   20 1 
    23   21   29 1 
    24   21   23 1 
    25   31   29 1 
    26   40   38 1 
    27   24   23 1 
    28   24   26 1 
    29   29   32 1 
    30   29   30 1 
    31   39   38 1 
    32   38   26 1 
    33   38   41 1 
    34   32   33 1 
    35   37   35 1 
    36   26   27 1 
    37   26   28 1 
    38   42   41 1 
    39   41   43 1 
    40   41   44 1 
    41   33   35 1 
    42   33   34 2 
    43   35   36 1 
    44   35   75 1 
    45   80   78 1 
    46   76   75 1 
    47   46   44 1 
    48   44   45 1 
    49   44   47 1 
    50   75   78 1 
    51   75   77 1 
    52   78   79 1 
    53   78   81 1 
    54   85   84 1 
    55   82   81 1 
    56   48   47 1 
    57   47   49 1 
    58   47   50 1 
    59   81   84 1 
    60   81   83 1 
    61   84   86 1 
    62   84   87 1 
    63   61   59 1 
    64   54   53 1 
    65   88   87 1 
    66   89   87 1 
    67   63   62 1 
    68   60   59 1 
    69   87   90 1 
    70   59   62 1 
    71   59   56 1 
    72   50   53 1 
    73   50   52 1 
    74   50   51 1 
    75   66   65 1 
    76   53   56 1 
    77   53   55 1 
    78   62   65 1 
    79   62   64 1 
    80  101   99 1 
    81  100   99 1 
    82   56   57 1 
    83   56   58 1 
    84  103  102 1 
    85   65   67 1 
    86   65   68 1 
    87   90   92 1 
    88   90   91 1 
    89   90   93 1 
    90   99  102 1 
    91   99   96 1 
    92   94   93 1 
    93  102  104 1 
    94  102  105 1 
    95   70   68 1 
    96  107  105 1 
    97  109  108 1 
    98   93   96 1 
    99   93   95 1 
   100   72   71 1 
   101   68   71 1 
   102   68   69 1 
   103   96   98 1 
   104   96   97 1 
   105  105  108 1 
   106  105  106 1 
   107   71   73 1 
   108   71   74 1 
   109  108  111 1 
   110  108  110 1 
