@<TRIPOS>MOLECULE
C:\Users\Praveer\PycharmProjects\pdb_to_mol2_converter\data\pdb\dmpi24.pdb
  128   128     0     0     0
SMALL
GASTEIGER

@<TRIPOS>ATOM
      1 C12         1.6030    0.0290   -0.0010 C.3       1 DMP1        0.0000
      2 H2          2.0060   -0.4340   -0.9320 H         1 DMP1        0.0000
      3 O2          2.0690   -0.7500    1.1000 O.3       1 DMP1        0.0000
      4 HO2         1.3480   -1.3770    1.2340 H         1 DMP1        0.0000
      5 C13         2.0710    1.4760    0.0270 C.3       1 DMP1        0.0000
      6 H3          1.5380    2.0220   -0.7900 H         1 DMP1        0.0000
      7 O3          3.4720    1.5670   -0.2420 O.3       1 DMP1        0.0000
      8 HO3         3.5990    2.5260   -0.3870 H         1 DMP1        0.0000
      9 C14         1.6960    2.1460    1.3400 C.3       1 DMP1        0.0000
     10 H4          2.1310    1.5230    2.1580 H         1 DMP1        0.0000
     11 O4          2.2170    3.4620    1.5420 O.3       1 DMP1        0.0000
     12 P4          2.2770    4.7030    0.4910 P.3       1 DMP1        0.0000
     13 OP42        0.7570    5.0950    0.2410 O.3       1 DMP1        0.0000
     14 HP42        0.2270    5.0060    1.0660 H         1 DMP1        0.0000
     15 OP43        2.9990    5.8730    1.1420 O.3       1 DMP1        0.0000
     16 OP44        2.9190    4.1970   -0.8010 O.2       1 DMP1        0.0000
     17 C15         0.1720    2.1020    1.5410 C.3       1 DMP1        0.0000
     18 H5         -0.2180    2.8840    0.8380 H         1 DMP1        0.0000
     19 O5         -0.1580    2.4270    2.9010 O.3       1 DMP1        0.0000
     20 P5         -1.3610    3.5250    3.2100 P.3       1 DMP1        0.0000
     21 OP52       -0.9730    4.7930    2.4510 O.2       1 DMP1        0.0000
     22 OP53       -1.3880    3.6950    4.7240 O.3       1 DMP1        0.0000
     23 OP54       -2.6260    2.8680    2.6600 O.3       1 DMP1        0.0000
     24 C16        -0.5470    0.8090    1.0940 C.3       1 DMP1        0.0000
     25 H6         -0.4840    0.1270    1.9820 H         1 DMP1        0.0000
     26 O6         -1.9360    1.0410    0.8980 O.3       1 DMP1        0.0000
     27 HO6        -2.1930    1.7300    1.5700 H         1 DMP1        0.0000
     28 C11         0.0860   -0.0210   -0.0360 C.3       1 DMP1        0.0000
     29 H1         -0.2330    0.5050   -0.9750 H         1 DMP1        0.0000
     30 P          -0.4220   -2.2260   -1.4510 P.3       1 DMP1        0.0000
     31 O13        -1.2370   -1.5160   -2.4570 O.2       1 DMP1        0.0000
     32 O14         0.9670   -2.5750   -1.8390 O.3       1 DMP1        0.0000
     33 O11        -1.1610   -3.5640   -1.0220 O.3       1 DMP1        0.0000
     34 O12        -0.3950   -1.3840   -0.0300 O.3       1 DMP1        0.0000
     35 C1         -2.4600   -3.5870   -0.4250 C.3       1 DMP1        0.0000
     36 HA         -2.8610   -2.5640   -0.2160 H         1 DMP1        0.0000
     37 HB         -2.3960   -4.1260    0.5450 H         1 DMP1        0.0000
     38 C2         -3.4590   -4.3310   -1.3490 C.3       1 DMP1        0.0000
     39 HS         -3.0580   -5.3640   -1.4930 H         1 DMP1        0.0000
     40 O21        -3.5460   -3.5840   -2.5710 O.3       1 DMP1        0.0000
     41 C21        -3.0680   -4.1620   -3.6510 C.2       1 DMP1        0.0000
     42 O22        -2.8820   -5.3670   -3.8030 O.2       1 DMP1        0.0000
     43 C22        -2.8050   -3.1070   -4.7210 C.3       1 DMP1        0.0000
     44 H2R        -1.7040   -3.0600   -4.8620 H         1 DMP1        0.0000
     45 H2S        -3.1320   -2.1190   -4.3410 H         1 DMP1        0.0000
     46 C3         -4.8800   -4.4420   -0.7270 C.3       1 DMP1        0.0000
     47 HX         -5.2250   -3.4050   -0.5090 H         1 DMP1        0.0000
     48 HY         -4.8340   -4.9870    0.2420 H         1 DMP1        0.0000
     49 O31        -5.8190   -5.0440   -1.6430 O.3       1 DMP1        0.0000
     50 C31        -5.7130   -6.3600   -1.7750 C.2       1 DMP1        0.0000
     51 O32        -5.0640   -7.1000   -1.0530 O.2       1 DMP1        0.0000
     52 C32        -6.5360   -6.7860   -2.9920 C.3       1 DMP1        0.0000
     53 H2X        -6.1490   -6.2020   -3.8550 H         1 DMP1        0.0000
     54 H2Y        -7.5910   -6.4980   -2.8130 H         1 DMP1        0.0000
     55 C23        -3.5000   -3.4440   -6.0540 C.3       1 DMP1        0.0000
     56 H3R        -3.2750   -4.4950   -6.3410 H         1 DMP1        0.0000
     57 H3S        -3.0750   -2.7860   -6.8470 H         1 DMP1        0.0000
     58 C24        -5.0140   -3.2000   -5.9970 C.3       1 DMP1        0.0000
     59 H4R        -5.1820   -2.1130   -5.8130 H         1 DMP1        0.0000
     60 H4S        -5.4650   -3.7560   -5.1450 H         1 DMP1        0.0000
     61 C25        -5.7340   -3.6010   -7.2910 C.3       1 DMP1        0.0000
     62 H5R        -5.1950   -3.1650   -8.1610 H         1 DMP1        0.0000
     63 H5S        -6.7590   -3.1670   -7.2750 H         1 DMP1        0.0000
     64 C26        -5.8480   -5.1210   -7.4670 C.3       1 DMP1        0.0000
     65 H6R        -6.4050   -5.5450   -6.6020 H         1 DMP1        0.0000
     66 H6S        -4.8340   -5.5780   -7.4650 H         1 DMP1        0.0000
     67 C27        -6.5630   -5.5080   -8.7680 C.3       1 DMP1        0.0000
     68 H7R        -5.9720   -5.1370   -9.6350 H         1 DMP1        0.0000
     69 H7S        -7.5570   -5.0080   -8.7950 H         1 DMP1        0.0000
     70 C28        -6.7610   -7.0250   -8.8850 C.3       1 DMP1        0.0000
     71 H8R        -7.3670   -7.3650   -8.0150 H         1 DMP1        0.0000
     72 H8S        -5.7720   -7.5320   -8.8260 H         1 DMP1        0.0000
     73 C29        -7.4760   -7.4440  -10.1780 C.3       1 DMP1        0.0000
     74 H9R        -6.8300   -7.2200  -11.0550 H         1 DMP1        0.0000
     75 H9S        -8.4050   -6.8380  -10.2800 H         1 DMP1        0.0000
     76 C210       -7.8670   -8.9300  -10.1790 C.3       1 DMP1        0.0000
     77 H10R       -8.4580   -9.1300   -9.2560 H         1 DMP1        0.0000
     78 H10S       -6.9550   -9.5650  -10.1380 H         1 DMP1        0.0000
     79 C211       -8.7240   -9.3290  -11.3880 C.3       1 DMP1        0.0000
     80 H11R       -8.1120   -9.3120  -12.3160 H         1 DMP1        0.0000
     81 H11S       -9.5380   -8.5770  -11.5060 H         1 DMP1        0.0000
     82 C212       -9.3790  -10.7080  -11.2150 C.3       1 DMP1        0.0000
     83 H12R       -9.9290  -10.7170  -10.2470 H         1 DMP1        0.0000
     84 H12S       -8.5970  -11.4980  -11.1630 H         1 DMP1        0.0000
     85 C213      -10.3710  -11.0330  -12.3380 C.3       1 DMP1        0.0000
     86 H13R       -9.8190  -11.1140  -13.3020 H         1 DMP1        0.0000
     87 H13S      -11.0840  -10.1810  -12.4340 H         1 DMP1        0.0000
     88 C214      -11.1690  -12.3160  -12.0920 C.3       1 DMP1        0.0000
     89 H14R      -11.7520  -12.2330  -11.1490 H         1 DMP1        0.0000
     90 H14S      -10.4900  -13.1910  -12.0100 H         1 DMP1        0.0000
     91 H14T      -11.8790  -12.4940  -12.9290 H         1 DMP1        0.0000
     92 C33        -6.4290   -8.3010   -3.2920 C.3       1 DMP1        0.0000
     93 H3X        -6.8110   -8.8910   -2.4270 H         1 DMP1        0.0000
     94 H3Y        -5.3560   -8.5700   -3.4330 H         1 DMP1        0.0000
     95 C34        -7.1930   -8.7150   -4.5590 C.3       1 DMP1        0.0000
     96 H4X        -6.9220   -8.0170   -5.3840 H         1 DMP1        0.0000
     97 H4Y        -8.2880   -8.6180   -4.3850 H         1 DMP1        0.0000
     98 C35        -6.8650  -10.1470   -5.0120 C.3       1 DMP1        0.0000
     99 H5X        -7.1520  -10.8740   -4.2180 H         1 DMP1        0.0000
    100 H5Y        -5.7640  -10.2380   -5.1650 H         1 DMP1        0.0000
    101 C36        -7.5690  -10.5250   -6.3220 C.3       1 DMP1        0.0000
    102 H6X        -7.3080   -9.7790   -7.1070 H         1 DMP1        0.0000
    103 H6Y        -8.6720  -10.4850   -6.1690 H         1 DMP1        0.0000
    104 C37        -7.1710  -11.9270   -6.8000 C.3       1 DMP1        0.0000
    105 H7X        -7.4220  -12.6590   -5.9980 H         1 DMP1        0.0000
    106 H7Y        -6.0700  -11.9730   -6.9580 H         1 DMP1        0.0000
    107 C38        -7.8870  -12.3400   -8.0910 C.3       1 DMP1        0.0000
    108 H8X        -7.5090  -11.7380   -8.9460 H         1 DMP1        0.0000
    109 H8Y        -8.9750  -12.1270   -7.9780 H         1 DMP1        0.0000
    110 C39        -7.7260  -13.8340   -8.3940 C.3       1 DMP1        0.0000
    111 H9X        -8.1290  -14.4000   -7.5220 H         1 DMP1        0.0000
    112 H9Y        -6.6490  -14.0950   -8.4940 H         1 DMP1        0.0000
    113 C310       -8.5000  -14.2610   -9.6470 C.3       1 DMP1        0.0000
    114 H10X       -7.9500  -13.9530  -10.5640 H         1 DMP1        0.0000
    115 H10Y       -9.4810  -13.7310   -9.6510 H         1 DMP1        0.0000
    116 C311       -8.7770  -15.7690   -9.6640 C.3       1 DMP1        0.0000
    117 H11X       -9.2910  -16.0350   -8.7100 H         1 DMP1        0.0000
    118 H11Y       -7.8130  -16.3260   -9.6940 H         1 DMP1        0.0000
    119 C312       -9.6730  -16.1990  -10.8340 C.3       1 DMP1        0.0000
    120 H12X       -9.1370  -16.0350  -11.7950 H         1 DMP1        0.0000
    121 H12Y      -10.5870  -15.5620  -10.8440 H         1 DMP1        0.0000
    122 C313      -10.1090  -17.6660  -10.7340 C.3       1 DMP1        0.0000
    123 H13X      -10.6350  -17.8160   -9.7630 H         1 DMP1        0.0000
    124 H13Y       -9.2040  -18.3150  -10.7240 H         1 DMP1        0.0000
    125 C314      -11.0290  -18.1020  -11.8760 C.3       1 DMP1        0.0000
    126 H14X      -10.5150  -17.9830  -12.8540 H         1 DMP1        0.0000
    127 H14Y      -11.9540  -17.4840  -11.8890 H         1 DMP1        0.0000
    128 H14Z      -11.3190  -19.1680  -11.7580 H         1 DMP1        0.0000
@<TRIPOS>BOND
     1   86   85 1 
     2   91   88 1 
     3  126  125 1 
     4   87   85 1 
     5   85   88 1 
     6   85   82 1 
     7   80   79 1 
     8   88   90 1 
     9   88   89 1 
    10  127  125 1 
    11  125  128 1 
    12  125  122 1 
    13  120  119 1 
    14   81   79 1 
    15   79   82 1 
    16   79   76 1 
    17   82   84 1 
    18   82   83 1 
    19   74   73 1 
    20  121  119 1 
    21  119  122 1 
    22  119  116 1 
    23  122  124 1 
    24  122  123 1 
    25  114  113 1 
    26   75   73 1 
    27   76   73 1 
    28   76   78 1 
    29   76   77 1 
    30   73   70 1 
    31  118  116 1 
    32  116  113 1 
    33  116  117 1 
    34  115  113 1 
    35  113  110 1 
    36   68   67 1 
    37  108  107 1 
    38   70   72 1 
    39   70   67 1 
    40   70   71 1 
    41   69   67 1 
    42   67   64 1 
    43  112  110 1 
    44  110  107 1 
    45  110  111 1 
    46   62   61 1 
    47  107  109 1 
    48  107  104 1 
    49   64   66 1 
    50   64   61 1 
    51   64   65 1 
    52   61   63 1 
    53   61   58 1 
    54  102  101 1 
    55  106  104 1 
    56   57   55 1 
    57  104  101 1 
    58  104  105 1 
    59   56   55 1 
    60  101  103 1 
    61  101   98 1 
    62   55   58 1 
    63   55   43 1 
    64   58   59 1 
    65   58   60 1 
    66   96   95 1 
    67  100   98 1 
    68   98   95 1 
    69   98   99 1 
    70   44   43 1 
    71   43   45 1 
    72   43   41 1 
    73   95   97 1 
    74   95   92 1 
    75   53   52 1 
    76   42   41 2 
    77   41   40 1 
    78   94   92 1 
    79   92   52 1 
    80   92   93 1 
    81   52   54 1 
    82   52   50 1 
    83   40   38 1 
    84   31   30 2 
    85   32   30 1 
    86   50   49 1 
    87   50   51 2 
    88   49   46 1 
    89   39   38 1 
    90   30   33 1 
    91   30   34 1 
    92   38   46 1 
    93   38   35 1 
    94   33   35 1 
    95   29   28 1 
    96    2    1 1 
    97   16   12 2 
    98    6    5 1 
    99   46   47 1 
   100   46   48 1 
   101   35   36 1 
   102   35   37 1 
   103    8    7 1 
   104    7    5 1 
   105   28   34 1 
   106   28    1 1 
   107   28   24 1 
   108    1    5 1 
   109    1    3 1 
   110    5    9 1 
   111   13   12 1 
   112   13   14 1 
   113   12   15 1 
   114   12   11 1 
   115   18   17 1 
   116   26   24 1 
   117   26   27 1 
   118   24   17 1 
   119   24   25 1 
   120    3    4 1 
   121    9   17 1 
   122    9   11 1 
   123    9   10 1 
   124   17   19 1 
   125   21   20 2 
   126   23   20 1 
   127   19   20 1 
   128   20   22 1 
