@<TRIPOS>MOLECULE
C:\Users\Praveer\PycharmProjects\pdb_to_mol2_converter\data\pdb\dmpi13.pdb
  124   124     0     0     0
SMALL
GASTEIGER

@<TRIPOS>ATOM
      1 C12         1.3930   -0.0480    0.1080 C.3       1 DMP1        0.0000
      2 H2          1.7760   -0.6150   -0.7780 H         1 DMP1        0.0000
      3 O2          1.7820   -0.7570    1.2760 O.3       1 DMP1        0.0000
      4 HO2         2.7490   -0.9110    1.1010 H         1 DMP1        0.0000
      5 C13         2.0230    1.3340    0.1170 C.3       1 DMP1        0.0000
      6 H3          1.7420    1.8050   -0.8560 H         1 DMP1        0.0000
      7 O3          3.4480    1.4130    0.2230 O.3       1 DMP1        0.0000
      8 P3          4.5260    0.3370   -0.3780 P.3       1 DMP1        0.0000
      9 OP32        5.8850    0.9800   -0.1380 O.3       1 DMP1        0.0000
     10 OP33        4.1690    0.1870   -1.8500 O.2       1 DMP1        0.0000
     11 OP34        4.2860   -0.9240    0.4480 O.3       1 DMP1        0.0000
     12 C14         1.4710    2.1720    1.2520 C.3       1 DMP1        0.0000
     13 H4          1.9520    1.7660    2.1840 H         1 DMP1        0.0000
     14 O4          1.8990    3.5260    1.1100 O.3       1 DMP1        0.0000
     15 HO4         2.7770    3.4160    0.7090 H         1 DMP1        0.0000
     16 C15        -0.0340    2.0780    1.5000 C.3       1 DMP1        0.0000
     17 H5         -0.4740    2.7910    0.7520 H         1 DMP1        0.0000
     18 O5         -0.3570    2.6030    2.7930 O.3       1 DMP1        0.0000
     19 HO5         0.1810    3.3950    2.8870 H         1 DMP1        0.0000
     20 C16        -0.7260    0.7450    1.1790 C.3       1 DMP1        0.0000
     21 H6         -0.5560    0.0640    2.0500 H         1 DMP1        0.0000
     22 O6         -2.1380    0.9350    1.0370 O.3       1 DMP1        0.0000
     23 HO6        -2.4300    0.4550    0.2300 H         1 DMP1        0.0000
     24 C11        -0.1240    0.0660   -0.0490 C.3       1 DMP1        0.0000
     25 H1         -0.2800    0.7430   -0.9280 H         1 DMP1        0.0000
     26 P          -1.8800   -1.4230   -1.4080 P.3       1 DMP1        0.0000
     27 O13        -2.8850   -0.3710   -1.1400 O.3       1 DMP1        0.0000
     28 O14        -1.3270   -1.4930   -2.7750 O.2       1 DMP1        0.0000
     29 O11        -2.5230   -2.8190   -1.0260 O.3       1 DMP1        0.0000
     30 O12        -0.6800   -1.2420   -0.2920 O.3       1 DMP1        0.0000
     31 C1         -2.7910   -3.2110    0.3180 C.3       1 DMP1        0.0000
     32 HA         -2.4900   -2.4440    1.0740 H         1 DMP1        0.0000
     33 HB         -2.2040   -4.1330    0.5240 H         1 DMP1        0.0000
     34 C2         -4.3050   -3.5040    0.4870 C.3       1 DMP1        0.0000
     35 HS         -4.6070   -4.1370   -0.3840 H         1 DMP1        0.0000
     36 O21        -4.9860   -2.2370    0.5570 O.3       1 DMP1        0.0000
     37 C21        -5.7960   -1.9550   -0.4550 C.2       1 DMP1        0.0000
     38 O22        -6.2990   -2.7660   -1.2090 O.2       1 DMP1        0.0000
     39 C22        -6.0190   -0.4380   -0.5070 C.3       1 DMP1        0.0000
     40 H2R        -5.2590   -0.0540   -1.2210 H         1 DMP1        0.0000
     41 H2S        -5.8020    0.0050    0.4840 H         1 DMP1        0.0000
     42 C3         -4.5840   -4.3140    1.7810 C.3       1 DMP1        0.0000
     43 HX         -4.6020   -3.6330    2.6570 H         1 DMP1        0.0000
     44 HY         -3.7050   -4.9800    1.9350 H         1 DMP1        0.0000
     45 O31        -5.7330   -5.1700    1.6500 O.3       1 DMP1        0.0000
     46 C31        -6.9690   -4.8780    2.0700 C.2       1 DMP1        0.0000
     47 O32        -7.9210   -5.6360    1.9320 O.2       1 DMP1        0.0000
     48 C32        -7.0980   -3.5370    2.7930 C.3       1 DMP1        0.0000
     49 H2X        -6.8530   -2.7240    2.0830 H         1 DMP1        0.0000
     50 H2Y        -6.3970   -3.5210    3.6510 H         1 DMP1        0.0000
     51 C23        -7.4090    0.0020   -1.0230 C.3       1 DMP1        0.0000
     52 H3R        -7.7360   -0.6290   -1.8770 H         1 DMP1        0.0000
     53 H3S        -7.2970    1.0430   -1.4100 H         1 DMP1        0.0000
     54 C24        -8.4870    0.0450    0.0680 C.3       1 DMP1        0.0000
     55 H4R        -8.1070    0.6480    0.9210 H         1 DMP1        0.0000
     56 H4S        -8.6870   -0.9850    0.4380 H         1 DMP1        0.0000
     57 C25        -9.7940    0.6670   -0.4480 C.3       1 DMP1        0.0000
     58 H5R       -10.1730    0.0310   -1.2810 H         1 DMP1        0.0000
     59 H5S        -9.5890    1.6770   -0.8680 H         1 DMP1        0.0000
     60 C26       -10.8970    0.7860    0.6160 C.3       1 DMP1        0.0000
     61 H6R       -11.0190   -0.1920    1.1280 H         1 DMP1        0.0000
     62 H6S       -11.8490    1.0120    0.0850 H         1 DMP1        0.0000
     63 C27       -10.6460    1.8920    1.6560 C.3       1 DMP1        0.0000
     64 H7R       -10.6030    2.8730    1.1300 H         1 DMP1        0.0000
     65 H7S        -9.6560    1.7280    2.1380 H         1 DMP1        0.0000
     66 C28       -11.7170    1.9630    2.7610 C.3       1 DMP1        0.0000
     67 H8R       -11.4840    2.8170    3.4350 H         1 DMP1        0.0000
     68 H8S       -11.6630    1.0340    3.3710 H         1 DMP1        0.0000
     69 C29       -13.1520    2.1190    2.2310 C.3       1 DMP1        0.0000
     70 H9R       -13.3890    1.2560    1.5700 H         1 DMP1        0.0000
     71 H9S       -13.2230    3.0450    1.6180 H         1 DMP1        0.0000
     72 C210      -14.2080    2.1520    3.3460 C.3       1 DMP1        0.0000
     73 H10R      -14.0930    3.0790    3.9490 H         1 DMP1        0.0000
     74 H10S      -14.0370    1.2830    4.0220 H         1 DMP1        0.0000
     75 C211      -15.6390    2.0650    2.7940 C.3       1 DMP1        0.0000
     76 H11R      -15.7110    1.1680    2.1360 H         1 DMP1        0.0000
     77 H11S      -15.8510    2.9600    2.1680 H         1 DMP1        0.0000
     78 C212      -16.7060    1.9450    3.8920 C.3       1 DMP1        0.0000
     79 H12R      -16.7170    2.8770    4.5010 H         1 DMP1        0.0000
     80 H12S      -16.4390    1.1010    4.5670 H         1 DMP1        0.0000
     81 C213      -18.1080    1.6930    3.3180 C.3       1 DMP1        0.0000
     82 H13R      -18.0620    0.8060    2.6450 H         1 DMP1        0.0000
     83 H13S      -18.4010    2.5680    2.6940 H         1 DMP1        0.0000
     84 C214      -19.1740    1.4490    4.3890 C.3       1 DMP1        0.0000
     85 H14R      -19.2660    2.3330    5.0560 H         1 DMP1        0.0000
     86 H14S      -18.9050    0.5670    5.0090 H         1 DMP1        0.0000
     87 H14T      -20.1630    1.2570    3.9190 H         1 DMP1        0.0000
     88 C33        -8.5270   -3.3160    3.3460 C.3       1 DMP1        0.0000
     89 H3X        -8.7530   -4.1090    4.0970 H         1 DMP1        0.0000
     90 H3Y        -9.2720   -3.4110    2.5240 H         1 DMP1        0.0000
     91 C34        -8.6840   -1.9430    4.0150 C.3       1 DMP1        0.0000
     92 H4X        -8.6230   -1.1470    3.2380 H         1 DMP1        0.0000
     93 H4Y        -7.8330   -1.7910    4.7190 H         1 DMP1        0.0000
     94 C35        -9.9960   -1.7960    4.8050 C.3       1 DMP1        0.0000
     95 H5X       -10.0060   -0.7980    5.3000 H         1 DMP1        0.0000
     96 H5Y       -10.0220   -2.5700    5.6060 H         1 DMP1        0.0000
     97 C36       -11.2590   -1.9340    3.9410 C.3       1 DMP1        0.0000
     98 H6X       -11.2600   -2.9290    3.4430 H         1 DMP1        0.0000
     99 H6Y       -11.2410   -1.1610    3.1440 H         1 DMP1        0.0000
    100 C37       -12.5530   -1.8040    4.7590 C.3       1 DMP1        0.0000
    101 H7X       -12.5740   -0.8160    5.2700 H         1 DMP1        0.0000
    102 H7Y       -12.5500   -2.5930    5.5440 H         1 DMP1        0.0000
    103 C38       -13.8140   -1.9580    3.8960 C.3       1 DMP1        0.0000
    104 H8X       -13.7200   -2.8890    3.2900 H         1 DMP1        0.0000
    105 H8Y       -13.8840   -1.1010    3.1900 H         1 DMP1        0.0000
    106 C39       -15.1080   -2.0470    4.7200 C.3       1 DMP1        0.0000
    107 H9X       -15.2330   -1.1230    5.3280 H         1 DMP1        0.0000
    108 H9Y       -15.0310   -2.9080    5.4220 H         1 DMP1        0.0000
    109 C310      -16.3480   -2.2380    3.8350 C.3       1 DMP1        0.0000
    110 H10X      -16.1610   -3.0720    3.1200 H         1 DMP1        0.0000
    111 H10Y      -16.5150   -1.3140    3.2390 H         1 DMP1        0.0000
    112 C311      -17.6150   -2.5640    4.6380 C.3       1 DMP1        0.0000
    113 H11X      -17.7890   -1.7660    5.3950 H         1 DMP1        0.0000
    114 H11Y      -17.4610   -3.5220    5.1840 H         1 DMP1        0.0000
    115 C312      -18.8510   -2.6890    3.7350 C.3       1 DMP1        0.0000
    116 H12X      -18.6460   -3.4430    2.9420 H         1 DMP1        0.0000
    117 H12Y      -19.0340   -1.7120    3.2330 H         1 DMP1        0.0000
    118 C313      -20.1160   -3.1090    4.4940 C.3       1 DMP1        0.0000
    119 H13X      -20.3130   -2.3710    5.3050 H         1 DMP1        0.0000
    120 H13Y      -19.9290   -4.0960    4.9790 H         1 DMP1        0.0000
    121 C314      -21.3490   -3.2150    3.5910 C.3       1 DMP1        0.0000
    122 H14X      -21.1680   -3.9410    2.7680 H         1 DMP1        0.0000
    123 H14Y      -21.5890   -2.2280    3.1400 H         1 DMP1        0.0000
    124 H14Z      -22.2320   -3.5590    4.1720 H         1 DMP1        0.0000
@<TRIPOS>BOND
     1   28   26 2 
     2   52   51 1 
     3   10    8 2 
     4   53   51 1 
     5   26   27 1 
     6   26   29 1 
     7   26   30 1 
     8   58   57 1 
     9   40   39 1 
    10   38   37 2 
    11   29   31 1 
    12   51   39 1 
    13   51   54 1 
    14   25   24 1 
    15   59   57 1 
    16    6    5 1 
    17    2    1 1 
    18   39   37 1 
    19   39   41 1 
    20   37   36 1 
    21   57   54 1 
    22   57   60 1 
    23   35   34 1 
    24    8    9 1 
    25    8    7 1 
    26    8   11 1 
    27   30   24 1 
    28   24    1 1 
    29   24   20 1 
    30   54   56 1 
    31   54   55 1 
    32   62   60 1 
    33    1    5 1 
    34    1    3 1 
    35    5    7 1 
    36    5   12 1 
    37   23   22 1 
    38   31   34 1 
    39   31   33 1 
    40   31   32 1 
    41   34   36 1 
    42   34   42 1 
    43   60   61 1 
    44   60   63 1 
    45   15   14 1 
    46   17   16 1 
    47   22   20 1 
    48    4    3 1 
    49   14   12 1 
    50   64   63 1 
    51   20   16 1 
    52   20   21 1 
    53   12   16 1 
    54   12   13 1 
    55   16   18 1 
    56   70   69 1 
    57   71   69 1 
    58   45   42 1 
    59   45   46 1 
    60   63   65 1 
    61   63   66 1 
    62   42   44 1 
    63   42   43 1 
    64   47   46 2 
    65   46   48 1 
    66   49   48 1 
    67   76   75 1 
    68   77   75 1 
    69   69   66 1 
    70   69   72 1 
    71   90   88 1 
    72   82   81 1 
    73   83   81 1 
    74   66   68 1 
    75   66   67 1 
    76  122  121 1 
    77   18   19 1 
    78   48   88 1 
    79   48   50 1 
    80   75   72 1 
    81   75   78 1 
    82  116  115 1 
    83  110  109 1 
    84  123  121 1 
    85   99   97 1 
    86  105  103 1 
    87  117  115 1 
    88   92   91 1 
    89  111  109 1 
    90  104  103 1 
    91   81   78 1 
    92   81   84 1 
    93   72   73 1 
    94   72   74 1 
    95   88   91 1 
    96   88   89 1 
    97   98   97 1 
    98  121  124 1 
    99  121  118 1 
   100  115  118 1 
   101  115  112 1 
   102  109  112 1 
   103  109  106 1 
   104   78   79 1 
   105   78   80 1 
   106  103  106 1 
   107  103  100 1 
   108   87   84 1 
   109   97  100 1 
   110   97   94 1 
   111   91   93 1 
   112   91   94 1 
   113   84   86 1 
   114   84   85 1 
   115  118  120 1 
   116  118  119 1 
   117  112  114 1 
   118  112  113 1 
   119  106  107 1 
   120  106  108 1 
   121  100  101 1 
   122  100  102 1 
   123   94   95 1 
   124   94   96 1 
