@<TRIPOS>MOLECULE
C:\Users\Praveer\PycharmProjects\pdb_to_mol2_converter\data\pdb\dmpi14.pdb
  124   124     0     0     0
SMALL
GASTEIGER

@<TRIPOS>ATOM
      1 C12         1.3690    0.0410   -0.0650 C.3       1 DMP1        0.0000
      2 H2          1.7090   -0.4170   -1.0270 H         1 DMP1        0.0000
      3 O2          1.7860   -0.8250    0.9930 O.3       1 DMP1        0.0000
      4 HO2         1.0960   -1.4980    1.0060 H         1 DMP1        0.0000
      5 C13         1.9800    1.4330    0.0030 C.3       1 DMP1        0.0000
      6 H3          1.6630    1.9870   -0.9150 H         1 DMP1        0.0000
      7 O3          3.4040    1.4010    0.0010 O.3       1 DMP1        0.0000
      8 HO3         3.6060    2.3000    0.3020 H         1 DMP1        0.0000
      9 C14         1.4840    2.2210    1.2020 C.3       1 DMP1        0.0000
     10 H4          1.8850    1.7010    2.1050 H         1 DMP1        0.0000
     11 O4          2.0970    3.5170    1.1750 O.3       1 DMP1        0.0000
     12 P4          1.4110    4.8720    0.5560 P.3       1 DMP1        0.0000
     13 OP42        2.5200    5.9140    0.5620 O.3       1 DMP1        0.0000
     14 OP43        0.2740    5.1780    1.5280 O.3       1 DMP1        0.0000
     15 OP44        0.9420    4.4800   -0.8380 O.2       1 DMP1        0.0000
     16 C15        -0.0450    2.1860    1.3430 C.3       1 DMP1        0.0000
     17 H5         -0.4830    2.7810    0.5030 H         1 DMP1        0.0000
     18 O5         -0.4190    2.8390    2.5510 O.3       1 DMP1        0.0000
     19 HO5        -0.2160    3.7860    2.3300 H         1 DMP1        0.0000
     20 C16        -0.6670    0.7900    1.1800 C.3       1 DMP1        0.0000
     21 H6         -0.3530    0.1870    2.0630 H         1 DMP1        0.0000
     22 O6         -2.0990    0.8220    1.1810 O.3       1 DMP1        0.0000
     23 HO6        -2.4140    0.5140    0.3090 H         1 DMP1        0.0000
     24 C11        -0.1450    0.1240   -0.0880 C.3       1 DMP1        0.0000
     25 H1         -0.3990    0.8030   -0.9470 H         1 DMP1        0.0000
     26 P          -1.8460   -1.4500   -1.3700 P.3       1 DMP1        0.0000
     27 O13        -2.8690   -0.4150   -1.1090 O.3       1 DMP1        0.0000
     28 O14        -1.2740   -1.5330   -2.7270 O.2       1 DMP1        0.0000
     29 O11        -2.4330   -2.8590   -0.9540 O.3       1 DMP1        0.0000
     30 O12        -0.6290   -1.2260   -0.2760 O.3       1 DMP1        0.0000
     31 C1         -2.7790   -3.1920    0.3890 C.3       1 DMP1        0.0000
     32 HA         -2.5160   -2.3950    1.1280 H         1 DMP1        0.0000
     33 HB         -2.2090   -4.1040    0.6660 H         1 DMP1        0.0000
     34 C2         -4.2990   -3.4900    0.5060 C.3       1 DMP1        0.0000
     35 HS         -4.5800   -4.1070   -0.3830 H         1 DMP1        0.0000
     36 O21        -4.9810   -2.2250    0.5820 O.3       1 DMP1        0.0000
     37 C21        -5.7990   -1.9450   -0.4230 C.2       1 DMP1        0.0000
     38 O22        -6.3070   -2.7600   -1.1720 O.2       1 DMP1        0.0000
     39 C22        -6.0150   -0.4300   -0.4880 C.3       1 DMP1        0.0000
     40 H2R        -5.2490   -0.0520   -1.2000 H         1 DMP1        0.0000
     41 H2S        -5.8050    0.0220    0.5010 H         1 DMP1        0.0000
     42 C3         -4.6020   -4.3250    1.7800 C.3       1 DMP1        0.0000
     43 HX         -4.6160   -3.6670    2.6720 H         1 DMP1        0.0000
     44 HY         -3.7350   -5.0090    1.9220 H         1 DMP1        0.0000
     45 O31        -5.7580   -5.1640    1.6230 O.3       1 DMP1        0.0000
     46 C31        -6.9960   -4.8690    2.0380 C.2       1 DMP1        0.0000
     47 O32        -7.9520   -5.6080    1.8730 O.2       1 DMP1        0.0000
     48 C32        -7.1150   -3.5420    2.7900 C.3       1 DMP1        0.0000
     49 H2X        -6.8640   -2.7150    2.0970 H         1 DMP1        0.0000
     50 H2Y        -6.4180   -3.5450    3.6510 H         1 DMP1        0.0000
     51 C23        -7.4040   -0.0030   -1.0150 C.3       1 DMP1        0.0000
     52 H3R        -7.7250   -0.6450   -1.8640 H         1 DMP1        0.0000
     53 H3S        -7.2960    1.0340   -1.4130 H         1 DMP1        0.0000
     54 C24        -8.4880    0.0420    0.0710 C.3       1 DMP1        0.0000
     55 H4R        -8.1070    0.6370    0.9300 H         1 DMP1        0.0000
     56 H4S        -8.6980   -0.9890    0.4340 H         1 DMP1        0.0000
     57 C25        -9.7840    0.6810   -0.4510 C.3       1 DMP1        0.0000
     58 H5R       -10.1580    0.0560   -1.2950 H         1 DMP1        0.0000
     59 H5S        -9.5610    1.6920   -0.8580 H         1 DMP1        0.0000
     60 C26       -10.8970    0.8010    0.6030 C.3       1 DMP1        0.0000
     61 H6R       -11.0300   -0.1800    1.1080 H         1 DMP1        0.0000
     62 H6S       -11.8430    1.0370    0.0650 H         1 DMP1        0.0000
     63 C27       -10.6460    1.9000    1.6500 C.3       1 DMP1        0.0000
     64 H7R       -10.5990    2.8830    1.1280 H         1 DMP1        0.0000
     65 H7S        -9.6570    1.7310    2.1310 H         1 DMP1        0.0000
     66 C28       -11.7160    1.9720    2.7560 C.3       1 DMP1        0.0000
     67 H8R       -11.4850    2.8340    3.4220 H         1 DMP1        0.0000
     68 H8S       -11.6550    1.0490    3.3740 H         1 DMP1        0.0000
     69 C29       -13.1520    2.1170    2.2310 C.3       1 DMP1        0.0000
     70 H9R       -13.3930    1.2380    1.5920 H         1 DMP1        0.0000
     71 H9S       -13.2280    3.0280    1.5970 H         1 DMP1        0.0000
     72 C210      -14.2030    2.1810    3.3490 C.3       1 DMP1        0.0000
     73 H10R      -14.0770    3.1190    3.9330 H         1 DMP1        0.0000
     74 H10S      -14.0390    1.3240    4.0410 H         1 DMP1        0.0000
     75 C211      -15.6330    2.0960    2.7960 C.3       1 DMP1        0.0000
     76 H11R      -15.7010    1.2010    2.1370 H         1 DMP1        0.0000
     77 H11S      -15.8450    2.9920    2.1710 H         1 DMP1        0.0000
     78 C212      -16.7010    1.9660    3.8910 C.3       1 DMP1        0.0000
     79 H12R      -16.7200    2.8930    4.5070 H         1 DMP1        0.0000
     80 H12S      -16.4300    1.1180    4.5600 H         1 DMP1        0.0000
     81 C213      -18.0980    1.7040    3.3110 C.3       1 DMP1        0.0000
     82 H13R      -18.0420    0.8160    2.6400 H         1 DMP1        0.0000
     83 H13S      -18.3980    2.5760    2.6850 H         1 DMP1        0.0000
     84 C214      -19.1670    1.4510    4.3770 C.3       1 DMP1        0.0000
     85 H14R      -19.2790    2.3380    5.0360 H         1 DMP1        0.0000
     86 H14S      -18.8870    0.5780    5.0060 H         1 DMP1        0.0000
     87 H14T      -20.1490    1.2380    3.9020 H         1 DMP1        0.0000
     88 C33        -8.5440   -3.3240    3.3380 C.3       1 DMP1        0.0000
     89 H3X        -8.7740   -4.1180    4.0870 H         1 DMP1        0.0000
     90 H3Y        -9.2870   -3.4190    2.5130 H         1 DMP1        0.0000
     91 C34        -8.7030   -1.9500    4.0020 C.3       1 DMP1        0.0000
     92 H4X        -8.6580   -1.1590    3.2200 H         1 DMP1        0.0000
     93 H4Y        -7.8470   -1.7880    4.6960 H         1 DMP1        0.0000
     94 C35       -10.0070   -1.8070    4.8030 C.3       1 DMP1        0.0000
     95 H5X       -10.0200   -0.8070    5.2930 H         1 DMP1        0.0000
     96 H5Y       -10.0230   -2.5760    5.6080 H         1 DMP1        0.0000
     97 C36       -11.2730   -1.9550    3.9490 C.3       1 DMP1        0.0000
     98 H6X       -11.2780   -2.9540    3.4600 H         1 DMP1        0.0000
     99 H6Y       -11.2630   -1.1870    3.1450 H         1 DMP1        0.0000
    100 C37       -12.5610   -1.8160    4.7720 C.3       1 DMP1        0.0000
    101 H7X       -12.5740   -0.8300    5.2880 H         1 DMP1        0.0000
    102 H7Y       -12.5690   -2.6090    5.5530 H         1 DMP1        0.0000
    103 C38       -13.8180   -1.9540    3.9050 C.3       1 DMP1        0.0000
    104 H8X       -13.7260   -2.8800    3.2920 H         1 DMP1        0.0000
    105 H8Y       -13.8820   -1.0910    3.2050 H         1 DMP1        0.0000
    106 C39       -15.1070   -2.0470    4.7310 C.3       1 DMP1        0.0000
    107 H9X       -15.2320   -1.1250    5.3410 H         1 DMP1        0.0000
    108 H9Y       -15.0220   -2.9090    5.4310 H         1 DMP1        0.0000
    109 C310      -16.3430   -2.2460    3.8450 C.3       1 DMP1        0.0000
    110 H10X      -16.1510   -3.0890    3.1430 H         1 DMP1        0.0000
    111 H10Y      -16.5060   -1.3290    3.2360 H         1 DMP1        0.0000
    112 C311      -17.6130   -2.5630    4.6450 C.3       1 DMP1        0.0000
    113 H11X      -17.8030   -1.7490    5.3790 H         1 DMP1        0.0000
    114 H11Y      -17.4570   -3.5060    5.2170 H         1 DMP1        0.0000
    115 C312      -18.8370   -2.7220    3.7340 C.3       1 DMP1        0.0000
    116 H12X      -18.6140   -3.4850    2.9540 H         1 DMP1        0.0000
    117 H12Y      -19.0260   -1.7550    3.2150 H         1 DMP1        0.0000
    118 C313      -20.1010   -3.1460    4.4890 C.3       1 DMP1        0.0000
    119 H13X      -20.2850   -2.4280    5.3210 H         1 DMP1        0.0000
    120 H13Y      -19.9290   -4.1480    4.9450 H         1 DMP1        0.0000
    121 C314      -21.3380   -3.2040    3.5890 C.3       1 DMP1        0.0000
    122 H14X      -21.1700   -3.9050    2.7430 H         1 DMP1        0.0000
    123 H14Y      -21.5570   -2.1980    3.1700 H         1 DMP1        0.0000
    124 H14Z      -22.2250   -3.5480    4.1610 H         1 DMP1        0.0000
@<TRIPOS>BOND
     1   28   26 2 
     2   52   51 1 
     3   53   51 1 
     4   26   27 1 
     5   26   29 1 
     6   26   30 1 
     7   58   57 1 
     8   40   39 1 
     9   38   37 2 
    10    2    1 1 
    11   51   39 1 
    12   51   54 1 
    13   29   31 1 
    14   25   24 1 
    15    6    5 1 
    16   59   57 1 
    17   15   12 2 
    18   39   37 1 
    19   39   41 1 
    20   57   54 1 
    21   57   60 1 
    22   37   36 1 
    23   35   34 1 
    24   30   24 1 
    25   24    1 1 
    26   24   20 1 
    27    1    5 1 
    28    1    3 1 
    29    7    5 1 
    30    7    8 1 
    31    5    9 1 
    32   62   60 1 
    33   54   56 1 
    34   54   55 1 
    35   23   22 1 
    36   31   34 1 
    37   31   33 1 
    38   31   32 1 
    39   17   16 1 
    40   34   36 1 
    41   34   42 1 
    42   12   13 1 
    43   12   11 1 
    44   12   14 1 
    45   60   61 1 
    46   60   63 1 
    47    3    4 1 
    48   64   63 1 
    49   11    9 1 
    50   20   22 1 
    51   20   16 1 
    52   20   21 1 
    53    9   16 1 
    54    9   10 1 
    55   16   18 1 
    56   70   69 1 
    57   71   69 1 
    58   45   42 1 
    59   45   46 1 
    60   63   65 1 
    61   63   66 1 
    62   42   44 1 
    63   42   43 1 
    64   47   46 2 
    65   46   48 1 
    66   49   48 1 
    67   76   75 1 
    68   77   75 1 
    69   69   66 1 
    70   69   72 1 
    71   19   18 1 
    72   90   88 1 
    73   82   81 1 
    74   83   81 1 
    75  122  121 1 
    76   66   68 1 
    77   66   67 1 
    78   48   88 1 
    79   48   50 1 
    80   75   72 1 
    81   75   78 1 
    82  116  115 1 
    83  110  109 1 
    84   99   97 1 
    85  123  121 1 
    86  105  103 1 
    87  117  115 1 
    88   92   91 1 
    89  111  109 1 
    90  104  103 1 
    91   81   78 1 
    92   81   84 1 
    93   88   91 1 
    94   88   89 1 
    95   72   73 1 
    96   72   74 1 
    97   98   97 1 
    98  121  124 1 
    99  121  118 1 
   100  115  118 1 
   101  115  112 1 
   102  109  112 1 
   103  109  106 1 
   104   78   79 1 
   105   78   80 1 
   106   87   84 1 
   107  103  106 1 
   108  103  100 1 
   109   97  100 1 
   110   97   94 1 
   111   91   93 1 
   112   91   94 1 
   113   84   86 1 
   114   84   85 1 
   115  118  120 1 
   116  118  119 1 
   117  112  114 1 
   118  112  113 1 
   119  106  107 1 
   120  106  108 1 
   121  100  101 1 
   122  100  102 1 
   123   94   95 1 
   124   94   96 1 
