@<TRIPOS>MOLECULE
C:\Users\Praveer\PycharmProjects\pdb_to_mol2_converter\data\pdb\dmpi.pdb
  121   121     0     0     0
SMALL
GASTEIGER

@<TRIPOS>ATOM
      1 C12         1.5140    0.0060    0.0010 C.3       1 DMP1        0.0000
      2 H2          1.8660   -0.4810   -0.9440 H         1 DMP1        0.0000
      3 O2          2.0700   -0.7340    1.0890 O.3       1 DMP1        0.0000
      4 HO2         1.5510   -1.5630    1.2090 H         1 DMP1        0.0000
      5 C13         2.0300    1.4270   -0.0010 C.3       1 DMP1        0.0000
      6 H3          1.6610    1.9250   -0.9300 H         1 DMP1        0.0000
      7 O3          3.4560    1.4380   -0.0620 O.3       1 DMP1        0.0000
      8 HO3         3.7440    0.7560    0.5580 H         1 DMP1        0.0000
      9 C14         1.4900    2.2240    1.1840 C.3       1 DMP1        0.0000
     10 H4          2.0450    1.8400    2.0780 H         1 DMP1        0.0000
     11 O4          1.7760    3.6190    1.0830 O.3       1 DMP1        0.0000
     12 HO4         1.5240    4.0150    1.9230 H         1 DMP1        0.0000
     13 C15         0.0100    2.0090    1.4930 C.3       1 DMP1        0.0000
     14 H5         -0.5370    2.6360    0.7400 H         1 DMP1        0.0000
     15 O5         -0.3460    2.5210    2.7770 O.3       1 DMP1        0.0000
     16 HO5        -1.2670    2.2600    2.9100 H         1 DMP1        0.0000
     17 C16        -0.5250    0.5980    1.2930 C.3       1 DMP1        0.0000
     18 H6         -0.1740   -0.0170    2.1570 H         1 DMP1        0.0000
     19 O6         -1.9510    0.6240    1.3200 O.3       1 DMP1        0.0000
     20 HO6        -2.2310   -0.3170    1.3710 H         1 DMP1        0.0000
     21 C11        -0.0030   -0.0050   -0.0040 C.3       1 DMP1        0.0000
     22 H1         -0.3260    0.6840   -0.8230 H         1 DMP1        0.0000
     23 P          -0.8280   -2.4790    0.6860 P.3       1 DMP1        0.0000
     24 O13         0.4070   -2.7650    1.4470 O.2       1 DMP1        0.0000
     25 O14        -2.0240   -2.0600    1.4490 O.3       1 DMP1        0.0000
     26 O11        -1.1770   -3.7120   -0.2410 O.3       1 DMP1        0.0000
     27 O12        -0.4770   -1.2970   -0.3920 O.3       1 DMP1        0.0000
     28 C1         -1.5100   -4.9510    0.3920 C.3       1 DMP1        0.0000
     29 HA         -2.3040   -4.8110    1.1670 H         1 DMP1        0.0000
     30 HB         -0.6070   -5.3880    0.8760 H         1 DMP1        0.0000
     31 C2         -2.0530   -5.9630   -0.6480 C.3       1 DMP1        0.0000
     32 HS         -1.2590   -6.0770   -1.4250 H         1 DMP1        0.0000
     33 O21        -3.2800   -5.4350   -1.1910 O.3       1 DMP1        0.0000
     34 C21        -3.5080   -5.7430   -2.4520 C.2       1 DMP1        0.0000
     35 O22        -2.7760   -6.3930   -3.1790 O.2       1 DMP1        0.0000
     36 C22        -4.8660   -5.1690   -2.8670 C.3       1 DMP1        0.0000
     37 H2R        -4.7090   -4.0900   -3.0720 H         1 DMP1        0.0000
     38 H2S        -5.5730   -5.2710   -2.0200 H         1 DMP1        0.0000
     39 C3         -2.3140   -7.3510    0.0080 C.3       1 DMP1        0.0000
     40 HX         -2.9980   -7.1730    0.8680 H         1 DMP1        0.0000
     41 HY         -1.3620   -7.7480    0.4310 H         1 DMP1        0.0000
     42 O31        -2.9580   -8.2750   -0.8940 O.3       1 DMP1        0.0000
     43 C31        -2.1430   -9.0150   -1.6410 C.2       1 DMP1        0.0000
     44 O32        -0.9340   -9.0850   -1.5190 O.2       1 DMP1        0.0000
     45 C32        -2.9870   -9.7690   -2.6690 C.3       1 DMP1        0.0000
     46 H2X        -3.2840   -9.0370   -3.4480 H         1 DMP1        0.0000
     47 H2Y        -3.9020  -10.1400   -2.1620 H         1 DMP1        0.0000
     48 C23        -5.4290   -5.8690   -4.1260 C.3       1 DMP1        0.0000
     49 H3R        -4.6470   -5.8930   -4.9210 H         1 DMP1        0.0000
     50 H3S        -6.2840   -5.2780   -4.5250 H         1 DMP1        0.0000
     51 C24        -5.9190   -7.2970   -3.8440 C.3       1 DMP1        0.0000
     52 H4R        -6.8480   -7.2630   -3.2340 H         1 DMP1        0.0000
     53 H4S        -5.1490   -7.8330   -3.2450 H         1 DMP1        0.0000
     54 C25        -6.1630   -8.1020   -5.1280 C.3       1 DMP1        0.0000
     55 H5R        -5.2340   -8.0740   -5.7430 H         1 DMP1        0.0000
     56 H5S        -6.9750   -7.6240   -5.7190 H         1 DMP1        0.0000
     57 C26        -6.5200   -9.5690   -4.8520 C.3       1 DMP1        0.0000
     58 H6R        -7.4780   -9.6170   -4.2890 H         1 DMP1        0.0000
     59 H6S        -5.7280  -10.0180   -4.2120 H         1 DMP1        0.0000
     60 C27        -6.6410  -10.3950   -6.1400 C.3       1 DMP1        0.0000
     61 H7R        -5.6850  -10.3240   -6.7070 H         1 DMP1        0.0000
     62 H7S        -7.4450   -9.9620   -6.7770 H         1 DMP1        0.0000
     63 C28        -6.9500  -11.8750   -5.8740 C.3       1 DMP1        0.0000
     64 H8R        -7.9050  -11.9530   -5.3070 H         1 DMP1        0.0000
     65 H8S        -6.1430  -12.3060   -5.2400 H         1 DMP1        0.0000
     66 C29        -7.0640  -12.6940   -7.1680 C.3       1 DMP1        0.0000
     67 H9R        -6.1130  -12.6040   -7.7410 H         1 DMP1        0.0000
     68 H9S        -7.8780  -12.2680   -7.7960 H         1 DMP1        0.0000
     69 C210       -7.3530  -14.1780   -6.9090 C.3       1 DMP1        0.0000
     70 H10R       -8.2930  -14.2710   -6.3190 H         1 DMP1        0.0000
     71 H10S       -6.5280  -14.6090   -6.2990 H         1 DMP1        0.0000
     72 C211       -7.4960  -14.9860   -8.2070 C.3       1 DMP1        0.0000
     73 H11R       -6.5700  -14.8690   -8.8130 H         1 DMP1        0.0000
     74 H11S       -8.3420  -14.5730   -8.8010 H         1 DMP1        0.0000
     75 C212       -7.7410  -16.4790   -7.9530 C.3       1 DMP1        0.0000
     76 H12R       -8.6560  -16.6000   -7.3320 H         1 DMP1        0.0000
     77 H12S       -6.8850  -16.8950   -7.3770 H         1 DMP1        0.0000
     78 C213       -7.9080  -17.2800   -9.2510 C.3       1 DMP1        0.0000
     79 H13R       -7.0080  -17.1240   -9.8890 H         1 DMP1        0.0000
     80 H13S       -8.7840  -16.8790   -9.8100 H         1 DMP1        0.0000
     81 C214       -8.1020  -18.7810   -9.0180 C.3       1 DMP1        0.0000
     82 H14R       -9.0140  -18.9650   -8.4090 H         1 DMP1        0.0000
     83 H14S       -7.2290  -19.2060   -8.4780 H         1 DMP1        0.0000
     84 H14T       -8.2110  -19.3160   -9.9850 H         1 DMP1        0.0000
     85 C33        -2.2450  -10.9460   -3.3380 C.3       1 DMP1        0.0000
     86 H3X        -1.8960  -11.6660   -2.5640 H         1 DMP1        0.0000
     87 H3Y        -1.3470  -10.5660   -3.8770 H         1 DMP1        0.0000
     88 C34        -3.1580  -11.6800   -4.3290 C.3       1 DMP1        0.0000
     89 H4X        -3.5130  -10.9580   -5.1000 H         1 DMP1        0.0000
     90 H4Y        -4.0520  -12.0580   -3.7850 H         1 DMP1        0.0000
     91 C35        -2.4710  -12.8580   -5.0320 C.3       1 DMP1        0.0000
     92 H5X        -2.0890  -13.5700   -4.2660 H         1 DMP1        0.0000
     93 H5Y        -1.5990  -12.4820   -5.6110 H         1 DMP1        0.0000
     94 C36        -3.4280  -13.5990   -5.9740 C.3       1 DMP1        0.0000
     95 H6X        -3.8230  -12.8830   -6.7290 H         1 DMP1        0.0000
     96 H6Y        -4.2940  -13.9770   -5.3850 H         1 DMP1        0.0000
     97 C37        -2.7680  -14.7780   -6.7000 C.3       1 DMP1        0.0000
     98 H7X        -2.3530  -15.4860   -5.9480 H         1 DMP1        0.0000
     99 H7Y        -1.9200  -14.4020   -7.3160 H         1 DMP1        0.0000
    100 C38        -3.7570  -15.5280   -7.6030 C.3       1 DMP1        0.0000
    101 H8X        -4.1810  -14.8160   -8.3460 H         1 DMP1        0.0000
    102 H8Y        -4.5990  -15.9050   -6.9800 H         1 DMP1        0.0000
    103 C39        -3.1190  -16.7090   -8.3450 C.3       1 DMP1        0.0000
    104 H9X        -2.6780  -17.4120   -7.6030 H         1 DMP1        0.0000
    105 H9Y        -2.2930  -16.3340   -8.9900 H         1 DMP1        0.0000
    106 C310       -4.1360  -17.4640   -9.2100 C.3       1 DMP1        0.0000
    107 H10X       -4.5860  -16.7570   -9.9430 H         1 DMP1        0.0000
    108 H10Y       -4.9560  -17.8400   -8.5580 H         1 DMP1        0.0000
    109 C311       -3.5220  -18.6480   -9.9680 C.3       1 DMP1        0.0000
    110 H11X       -3.0650  -19.3520   -9.2370 H         1 DMP1        0.0000
    111 H11Y       -2.7110  -18.2750  -10.6330 H         1 DMP1        0.0000
    112 C312       -4.5590  -19.4020  -10.8110 C.3       1 DMP1        0.0000
    113 H12X       -5.0210  -18.6970  -11.5390 H         1 DMP1        0.0000
    114 H12Y       -5.3690  -19.7750  -10.1440 H         1 DMP1        0.0000
    115 C313       -3.9570  -20.5880  -11.5750 C.3       1 DMP1        0.0000
    116 H13X       -3.4910  -21.2870  -10.8430 H         1 DMP1        0.0000
    117 H13Y       -3.1460  -20.2120  -12.2400 H         1 DMP1        0.0000
    118 C314       -4.9840  -21.3510  -12.4160 C.3       1 DMP1        0.0000
    119 H14X       -5.4450  -20.6780  -13.1710 H         1 DMP1        0.0000
    120 H14Y       -5.7910  -21.7570  -11.7690 H         1 DMP1        0.0000
    121 H14Z       -4.5010  -22.1990  -12.9480 H         1 DMP1        0.0000
@<TRIPOS>BOND
     1  119  118 1 
     2  121  118 1 
     3  118  120 1 
     4  118  115 1 
     5  117  115 1 
     6  115  116 1 
     7  115  112 1 
     8  113  112 1 
     9  112  114 1 
    10  112  109 1 
    11  111  109 1 
    12   84   81 1 
    13  109  110 1 
    14  109  106 1 
    15  107  106 1 
    16   79   78 1 
    17   80   78 1 
    18   78   81 1 
    19   78   75 1 
    20  106  108 1 
    21  106  103 1 
    22   81   83 1 
    23   81   82 1 
    24  105  103 1 
    25   73   72 1 
    26   74   72 1 
    27  101  100 1 
    28  103  104 1 
    29  103  100 1 
    30   72   75 1 
    31   72   69 1 
    32   75   77 1 
    33   75   76 1 
    34   68   66 1 
    35   67   66 1 
    36  100  102 1 
    37  100   97 1 
    38   99   97 1 
    39   66   69 1 
    40   66   63 1 
    41   69   70 1 
    42   69   71 1 
    43   62   60 1 
    44   95   94 1 
    45   61   60 1 
    46   97   94 1 
    47   97   98 1 
    48   60   63 1 
    49   60   57 1 
    50   94   96 1 
    51   94   91 1 
    52   63   64 1 
    53   63   65 1 
    54   55   54 1 
    55   56   54 1 
    56   93   91 1 
    57   54   57 1 
    58   54   51 1 
    59   89   88 1 
    60   91   88 1 
    61   91   92 1 
    62   49   48 1 
    63   57   58 1 
    64   57   59 1 
    65   50   48 1 
    66   88   90 1 
    67   88   85 1 
    68   48   51 1 
    69   48   36 1 
    70   87   85 1 
    71   51   53 1 
    72   51   52 1 
    73   46   45 1 
    74   85   45 1 
    75   85   86 1 
    76   35   34 2 
    77   37   36 1 
    78   36   34 1 
    79   36   38 1 
    80   45   47 1 
    81   45   43 1 
    82   34   33 1 
    83   43   44 2 
    84   43   42 1 
    85   32   31 1 
    86   33   31 1 
    87    2    1 1 
    88    6    5 1 
    89   42   39 1 
    90   22   21 1 
    91   31   39 1 
    92   31   28 1 
    93   27   21 1 
    94   27   23 1 
    95   26   28 1 
    96   26   23 1 
    97    7    5 1 
    98    7    8 1 
    99   21    1 1 
   100   21   17 1 
   101    5    1 1 
   102    5    9 1 
   103    1    3 1 
   104   39   41 1 
   105   39   40 1 
   106   28   30 1 
   107   28   29 1 
   108   23   24 2 
   109   23   25 1 
   110   14   13 1 
   111   11    9 1 
   112   11   12 1 
   113    3    4 1 
   114    9   13 1 
   115    9   10 1 
   116   17   19 1 
   117   17   13 1 
   118   17   18 1 
   119   19   20 1 
   120   13   15 1 
   121   15   16 1 
