@<TRIPOS>MOLECULE
C:\Users\Praveer\PycharmProjects\pdb_to_mol2_converter\data\pdb\dmpi15.pdb
  124   124     0     0     0
SMALL
GASTEIGER

@<TRIPOS>ATOM
      1 C12         1.1860    0.0960   -0.1040 C.3       1 DMP1        0.0000
      2 H2          1.4530   -0.2900   -1.1170 H         1 DMP1        0.0000
      3 O2          1.7480   -0.8110    0.8460 O.3       1 DMP1        0.0000
      4 HO2         1.0520   -1.4790    0.9220 H         1 DMP1        0.0000
      5 C13         1.7960    1.4850    0.0310 C.3       1 DMP1        0.0000
      6 H3          1.5290    2.0260   -0.9130 H         1 DMP1        0.0000
      7 O3          3.2260    1.4180    0.0920 O.3       1 DMP1        0.0000
      8 HO3         3.3990    0.7050    0.7200 H         1 DMP1        0.0000
      9 C14         1.2020    2.3360    1.1500 C.3       1 DMP1        0.0000
     10 H4          1.8230    2.0850    2.0490 H         1 DMP1        0.0000
     11 O4          1.3520    3.7380    0.9440 O.3       1 DMP1        0.0000
     12 HO4         0.6000    4.1650    1.4360 H         1 DMP1        0.0000
     13 C15        -0.2310    2.0380    1.5530 C.3       1 DMP1        0.0000
     14 H5         -0.8400    2.6300    0.8030 H         1 DMP1        0.0000
     15 O5         -0.4260    2.4690    2.9160 O.3       1 DMP1        0.0000
     16 P5         -1.4460    3.7530    3.1020 P.3       1 DMP1        0.0000
     17 OP52       -0.7920    4.8280    2.2390 O.2       1 DMP1        0.0000
     18 OP53       -1.4810    4.0760    4.5900 O.3       1 DMP1        0.0000
     19 OP54       -2.7580    3.2150    2.5450 O.3       1 DMP1        0.0000
     20 C16        -0.7550    0.6320    1.3740 C.3       1 DMP1        0.0000
     21 H6         -0.3420   -0.0180    2.1820 H         1 DMP1        0.0000
     22 O6         -2.1710    0.6710    1.5270 O.3       1 DMP1        0.0000
     23 HO6        -2.3810    1.5630    1.9040 H         1 DMP1        0.0000
     24 C11        -0.3260    0.0850    0.0270 C.3       1 DMP1        0.0000
     25 H1         -0.7420    0.7890   -0.7430 H         1 DMP1        0.0000
     26 P          -1.6320   -1.6880   -1.5070 P.3       1 DMP1        0.0000
     27 O13        -2.5810   -0.6190   -1.8790 O.3       1 DMP1        0.0000
     28 O14        -0.6580   -2.1230   -2.5300 O.2       1 DMP1        0.0000
     29 O11        -2.4650   -2.9490   -1.0230 O.3       1 DMP1        0.0000
     30 O12        -0.7720   -1.2700   -0.1600 O.3       1 DMP1        0.0000
     31 C1         -2.8090   -3.1870    0.3410 C.3       1 DMP1        0.0000
     32 HA         -2.5980   -2.3250    1.0230 H         1 DMP1        0.0000
     33 HB         -2.2040   -4.0450    0.7000 H         1 DMP1        0.0000
     34 C2         -4.3190   -3.5060    0.4670 C.3       1 DMP1        0.0000
     35 HS         -4.6030   -4.1190   -0.4230 H         1 DMP1        0.0000
     36 O21        -5.0070   -2.2480    0.5590 O.3       1 DMP1        0.0000
     37 C21        -5.8260   -1.9490   -0.4320 C.2       1 DMP1        0.0000
     38 O22        -6.3720   -2.7560   -1.1720 O.2       1 DMP1        0.0000
     39 C22        -6.0030   -0.4320   -0.4970 C.3       1 DMP1        0.0000
     40 H2R        -5.2080   -0.0720   -1.1900 H         1 DMP1        0.0000
     41 H2S        -5.8000    0.0090    0.5010 H         1 DMP1        0.0000
     42 C3         -4.6010   -4.3430    1.7420 C.3       1 DMP1        0.0000
     43 HX         -4.6060   -3.6880    2.6380 H         1 DMP1        0.0000
     44 HY         -3.7310   -5.0240    1.8710 H         1 DMP1        0.0000
     45 O31        -5.7570   -5.1810    1.5940 O.3       1 DMP1        0.0000
     46 C31        -6.9830   -4.8960    2.0470 C.2       1 DMP1        0.0000
     47 O32        -7.9360   -5.6480    1.9160 O.2       1 DMP1        0.0000
     48 C32        -7.1000   -3.5660    2.7940 C.3       1 DMP1        0.0000
     49 H2X        -6.8430   -2.7400    2.1040 H         1 DMP1        0.0000
     50 H2Y        -6.4050   -3.5700    3.6570 H         1 DMP1        0.0000
     51 C23        -7.3820    0.0270   -1.0290 C.3       1 DMP1        0.0000
     52 H3R        -7.7030   -0.5960   -1.8930 H         1 DMP1        0.0000
     53 H3S        -7.2570    1.0690   -1.4060 H         1 DMP1        0.0000
     54 C24        -8.4770    0.0600    0.0490 C.3       1 DMP1        0.0000
     55 H4R        -8.0940    0.6310    0.9240 H         1 DMP1        0.0000
     56 H4S        -8.6960   -0.9770    0.3880 H         1 DMP1        0.0000
     57 C25        -9.7680    0.7210   -0.4610 C.3       1 DMP1        0.0000
     58 H5R       -10.1420    0.1200   -1.3210 H         1 DMP1        0.0000
     59 H5S        -9.5330    1.7390   -0.8430 H         1 DMP1        0.0000
     60 C26       -10.8860    0.8250    0.5910 C.3       1 DMP1        0.0000
     61 H6R       -11.0150   -0.1600    1.0890 H         1 DMP1        0.0000
     62 H6S       -11.8320    1.0620    0.0520 H         1 DMP1        0.0000
     63 C27       -10.6410    1.9180    1.6470 C.3       1 DMP1        0.0000
     64 H7R       -10.5960    2.9040    1.1340 H         1 DMP1        0.0000
     65 H7S        -9.6520    1.7500    2.1290 H         1 DMP1        0.0000
     66 C28       -11.7120    1.9790    2.7530 C.3       1 DMP1        0.0000
     67 H8R       -11.4930    2.8500    3.4110 H         1 DMP1        0.0000
     68 H8S       -11.6360    1.0620    3.3770 H         1 DMP1        0.0000
     69 C29       -13.1500    2.0970    2.2260 C.3       1 DMP1        0.0000
     70 H9R       -13.3890    1.1870    1.6320 H         1 DMP1        0.0000
     71 H9S       -13.2290    2.9750    1.5470 H         1 DMP1        0.0000
     72 C210      -14.1960    2.2220    3.3430 C.3       1 DMP1        0.0000
     73 H10R      -14.0480    3.1750    3.8970 H         1 DMP1        0.0000
     74 H10S      -14.0460    1.3850    4.0610 H         1 DMP1        0.0000
     75 C211      -15.6290    2.1500    2.7950 C.3       1 DMP1        0.0000
     76 H11R      -15.6980    1.2680    2.1190 H         1 DMP1        0.0000
     77 H11S      -15.8460    3.0550    2.1870 H         1 DMP1        0.0000
     78 C212      -16.6940    1.9950    3.8890 C.3       1 DMP1        0.0000
     79 H12R      -16.7230    2.9120    4.5170 H         1 DMP1        0.0000
     80 H12S      -16.4110    1.1430    4.5490 H         1 DMP1        0.0000
     81 C213      -18.0860    1.7180    3.3050 C.3       1 DMP1        0.0000
     82 H13R      -18.0160    0.8300    2.6350 H         1 DMP1        0.0000
     83 H13S      -18.3930    2.5820    2.6740 H         1 DMP1        0.0000
     84 C214      -19.1580    1.4520    4.3640 C.3       1 DMP1        0.0000
     85 H14R      -19.2950    2.3430    5.0140 H         1 DMP1        0.0000
     86 H14S      -18.8670    0.5910    5.0040 H         1 DMP1        0.0000
     87 H14T      -20.1290    1.2160    3.8790 H         1 DMP1        0.0000
     88 C33        -8.5330   -3.3410    3.3330 C.3       1 DMP1        0.0000
     89 H3X        -8.7660   -4.1260    4.0890 H         1 DMP1        0.0000
     90 H3Y        -9.2720   -3.4480    2.5070 H         1 DMP1        0.0000
     91 C34        -8.7040   -1.9560    3.9730 C.3       1 DMP1        0.0000
     92 H4X        -8.6780   -1.1760    3.1790 H         1 DMP1        0.0000
     93 H4Y        -7.8440   -1.7680    4.6540 H         1 DMP1        0.0000
     94 C35        -9.9990   -1.8220    4.7900 C.3       1 DMP1        0.0000
     95 H5X       -10.0190   -0.8180    5.2710 H         1 DMP1        0.0000
     96 H5Y        -9.9940   -2.5820    5.6030 H         1 DMP1        0.0000
     97 C36       -11.2750   -1.9930    3.9550 C.3       1 DMP1        0.0000
     98 H6X       -11.2800   -3.0030    3.4850 H         1 DMP1        0.0000
     99 H6Y       -11.2780   -1.2400    3.1360 H         1 DMP1        0.0000
    100 C37       -12.5540   -1.8400    4.7900 C.3       1 DMP1        0.0000
    101 H7X       -12.5490   -0.8600    5.3150 H         1 DMP1        0.0000
    102 H7Y       -12.5710   -2.6400    5.5640 H         1 DMP1        0.0000
    103 C38       -13.8180   -1.9470    3.9300 C.3       1 DMP1        0.0000
    104 H8X       -13.7380   -2.8600    3.2980 H         1 DMP1        0.0000
    105 H8Y       -13.8780   -1.0710    3.2450 H         1 DMP1        0.0000
    106 C39       -15.1070   -2.0430    4.7560 C.3       1 DMP1        0.0000
    107 H9X       -15.2380   -1.1200    5.3630 H         1 DMP1        0.0000
    108 H9Y       -15.0190   -2.9030    5.4570 H         1 DMP1        0.0000
    109 C310      -16.3360   -2.2550    3.8620 C.3       1 DMP1        0.0000
    110 H10X      -16.1350   -3.1100    3.1770 H         1 DMP1        0.0000
    111 H10Y      -16.4930   -1.3490    3.2340 H         1 DMP1        0.0000
    112 C311      -17.6150   -2.5600    4.6510 C.3       1 DMP1        0.0000
    113 H11X      -17.8320   -1.7210    5.3470 H         1 DMP1        0.0000
    114 H11Y      -17.4570   -3.4760    5.2620 H         1 DMP1        0.0000
    115 C312      -18.8190   -2.7730    3.7240 C.3       1 DMP1        0.0000
    116 H12X      -18.5690   -3.5540    2.9700 H         1 DMP1        0.0000
    117 H12Y      -19.0150   -1.8250    3.1750 H         1 DMP1        0.0000
    118 C313      -20.0870   -3.1960    4.4740 C.3       1 DMP1        0.0000
    119 H13X      -20.2480   -2.5050    5.3320 H         1 DMP1        0.0000
    120 H13Y      -19.9350   -4.2170    4.8930 H         1 DMP1        0.0000
    121 C314      -21.3340   -3.1870    3.5870 C.3       1 DMP1        0.0000
    122 H14X      -21.1920   -3.8540    2.7090 H         1 DMP1        0.0000
    123 H14Y      -21.5360   -2.1590    3.2160 H         1 DMP1        0.0000
    124 H14Z      -22.2220   -3.5340    4.1560 H         1 DMP1        0.0000
@<TRIPOS>BOND
     1   28   26 2 
     2   52   51 1 
     3   27   26 1 
     4   26   29 1 
     5   26   30 1 
     6   53   51 1 
     7   58   57 1 
     8   40   39 1 
     9   38   37 2 
    10    2    1 1 
    11   51   39 1 
    12   51   54 1 
    13   29   31 1 
    14    6    5 1 
    15   59   57 1 
    16   25   24 1 
    17   39   37 1 
    18   39   41 1 
    19   57   54 1 
    20   57   60 1 
    21   37   36 1 
    22   35   34 1 
    23   30   24 1 
    24    1   24 1 
    25    1    5 1 
    26    1    3 1 
    27   24   20 1 
    28    5    7 1 
    29    5    9 1 
    30   54   56 1 
    31   54   55 1 
    32   62   60 1 
    33    7    8 1 
    34   31   34 1 
    35   31   33 1 
    36   31   32 1 
    37   34   36 1 
    38   34   42 1 
    39   60   61 1 
    40   60   63 1 
    41   14   13 1 
    42    3    4 1 
    43   11    9 1 
    44   11   12 1 
    45   64   63 1 
    46    9   13 1 
    47    9   10 1 
    48   20   22 1 
    49   20   13 1 
    50   20   21 1 
    51   22   23 1 
    52   71   69 1 
    53   13   15 1 
    54   45   42 1 
    55   45   46 1 
    56   70   69 1 
    57   63   65 1 
    58   63   66 1 
    59   42   44 1 
    60   42   43 1 
    61   47   46 2 
    62   46   48 1 
    63   49   48 1 
    64   76   75 1 
    65   77   75 1 
    66   69   66 1 
    67   69   72 1 
    68   17   16 2 
    69   90   88 1 
    70   19   16 1 
    71   82   81 1 
    72   83   81 1 
    73  122  121 1 
    74   66   68 1 
    75   66   67 1 
    76   48   88 1 
    77   48   50 1 
    78   75   72 1 
    79   75   78 1 
    80   15   16 1 
    81  116  115 1 
    82   16   18 1 
    83   99   97 1 
    84  117  115 1 
    85  110  109 1 
    86   92   91 1 
    87  123  121 1 
    88  111  109 1 
    89  105  103 1 
    90  104  103 1 
    91   81   78 1 
    92   81   84 1 
    93   88   91 1 
    94   88   89 1 
    95   72   73 1 
    96   72   74 1 
    97   98   97 1 
    98  121  124 1 
    99  121  118 1 
   100  115  118 1 
   101  115  112 1 
   102  109  112 1 
   103  109  106 1 
   104   87   84 1 
   105   78   79 1 
   106   78   80 1 
   107  103  106 1 
   108  103  100 1 
   109   97  100 1 
   110   97   94 1 
   111   91   93 1 
   112   91   94 1 
   113   84   86 1 
   114   84   85 1 
   115  118  120 1 
   116  118  119 1 
   117  112  114 1 
   118  112  113 1 
   119  106  107 1 
   120  106  108 1 
   121  100  101 1 
   122  100  102 1 
   123   94   95 1 
   124   94   96 1 
