@<TRIPOS>MOLECULE
C:\Users\Praveer\PycharmProjects\pdb_to_mol2_converter\data\pdb\dmpi2a.pdb
  128   128     0     0     0
SMALL
GASTEIGER

@<TRIPOS>ATOM
      1 C12         1.4680   -0.0910    0.1190 C.3       1 DMP1        0.0000
      2 H2          1.9530   -0.7440   -0.6500 H         1 DMP1        0.0000
      3 O2          1.9110   -0.5380    1.4050 O.3       1 DMP1        0.0000
      4 HO2         1.3100   -0.1700    2.0680 H         1 DMP1        0.0000
      5 C13         1.8910    1.3360   -0.1730 C.3       1 DMP1        0.0000
      6 H3          1.3790    1.6310   -1.1250 H         1 DMP1        0.0000
      7 O3          3.3260    1.4320   -0.2730 O.3       1 DMP1        0.0000
      8 P3          4.0450    2.0480   -1.6080 P.3       1 DMP1        0.0000
      9 OP32        3.6260    3.5630   -1.3450 O.3       1 DMP1        0.0000
     10 HP32        2.8640    3.5460   -0.7420 H         1 DMP1        0.0000
     11 OP33        5.5560    1.9060   -1.5070 O.3       1 DMP1        0.0000
     12 OP34        3.3520    1.5340   -2.8610 O.2       1 DMP1        0.0000
     13 C14         1.3580    2.2330    0.9360 C.3       1 DMP1        0.0000
     14 H4          2.0480    2.0290    1.7990 H         1 DMP1        0.0000
     15 O4          1.4910    3.6250    0.6740 O.3       1 DMP1        0.0000
     16 HO4         1.0450    4.0260    1.4310 H         1 DMP1        0.0000
     17 C15        -0.0540    1.9290    1.4650 C.3       1 DMP1        0.0000
     18 H5         -0.7040    2.6510    0.9020 H         1 DMP1        0.0000
     19 O5         -0.1070    2.3770    2.8220 O.3       1 DMP1        0.0000
     20 P5         -1.1860    1.9030    3.9680 P.3       1 DMP1        0.0000
     21 OP52       -0.7080    0.5320    4.4200 O.3       1 DMP1        0.0000
     22 OP53       -2.5380    1.8690    3.2590 O.2       1 DMP1        0.0000
     23 OP54       -1.1020    2.9650    5.0560 O.3       1 DMP1        0.0000
     24 C16        -0.7080    0.5730    1.0970 C.3       1 DMP1        0.0000
     25 H6         -0.5640   -0.0880    1.9890 H         1 DMP1        0.0000
     26 O6         -2.1190    0.7150    0.9570 O.3       1 DMP1        0.0000
     27 HO6        -2.4000    1.1040    1.8280 H         1 DMP1        0.0000
     28 C11        -0.0390   -0.2120   -0.0350 C.3       1 DMP1        0.0000
     29 H1         -0.3510    0.2710   -0.9950 H         1 DMP1        0.0000
     30 P          -0.7810   -2.4510   -1.3450 P.3       1 DMP1        0.0000
     31 O13        -1.7810   -1.7660   -2.1880 O.2       1 DMP1        0.0000
     32 O14         0.4660   -2.8980   -2.0140 O.3       1 DMP1        0.0000
     33 O11        -1.4780   -3.7250   -0.7020 O.3       1 DMP1        0.0000
     34 O12        -0.4380   -1.5880    0.0090 O.3       1 DMP1        0.0000
     35 C1         -2.6030   -3.5690    0.1720 C.3       1 DMP1        0.0000
     36 HA         -3.1120   -2.5820    0.0310 H         1 DMP1        0.0000
     37 HB         -2.2670   -3.6220    1.2310 H         1 DMP1        0.0000
     38 C2         -3.6640   -4.6710   -0.1000 C.3       1 DMP1        0.0000
     39 HS         -3.2350   -5.6520    0.2200 H         1 DMP1        0.0000
     40 O21        -3.9740   -4.6460   -1.5050 O.3       1 DMP1        0.0000
     41 C21        -3.1770   -5.4080   -2.2430 C.2       1 DMP1        0.0000
     42 O22        -2.6560   -6.4500   -1.8880 O.2       1 DMP1        0.0000
     43 C22        -3.0510   -4.8060   -3.6410 C.3       1 DMP1        0.0000
     44 H2R        -1.9650   -4.7770   -3.8750 H         1 DMP1        0.0000
     45 H2S        -3.4190   -3.7600   -3.6210 H         1 DMP1        0.0000
     46 C3         -4.9660   -4.4450    0.7220 C.3       1 DMP1        0.0000
     47 HX         -5.2470   -3.3760    0.5920 H         1 DMP1        0.0000
     48 HY         -4.7580   -4.6010    1.8060 H         1 DMP1        0.0000
     49 O31        -6.0670   -5.2540    0.2510 O.3       1 DMP1        0.0000
     50 C31        -6.0240   -6.5360    0.5870 C.2       1 DMP1        0.0000
     51 O32        -5.2540   -7.0400    1.3800 O.2       1 DMP1        0.0000
     52 C32        -7.1280   -7.2890   -0.1660 C.3       1 DMP1        0.0000
     53 H2X        -7.6400   -6.5820   -0.8510 H         1 DMP1        0.0000
     54 H2Y        -7.8680   -7.6490    0.5760 H         1 DMP1        0.0000
     55 C23        -3.8070   -5.6500   -4.6860 C.3       1 DMP1        0.0000
     56 H3R        -3.4640   -6.7080   -4.6430 H         1 DMP1        0.0000
     57 H3S        -3.5640   -5.2600   -5.7010 H         1 DMP1        0.0000
     58 C24        -5.3260   -5.5830   -4.4840 C.3       1 DMP1        0.0000
     59 H4R        -5.6470   -4.5200   -4.5620 H         1 DMP1        0.0000
     60 H4S        -5.5840   -5.9320   -3.4590 H         1 DMP1        0.0000
     61 C25        -6.1020   -6.4270   -5.5010 C.3       1 DMP1        0.0000
     62 H5R        -5.7750   -7.4890   -5.4320 H         1 DMP1        0.0000
     63 H5S        -5.8620   -6.0630   -6.5250 H         1 DMP1        0.0000
     64 C26        -7.6160   -6.3470   -5.2760 C.3       1 DMP1        0.0000
     65 H6R        -7.9100   -5.2740   -5.2300 H         1 DMP1        0.0000
     66 H6S        -7.8720   -6.8070   -4.2970 H         1 DMP1        0.0000
     67 C27        -8.4210   -7.0260   -6.3910 C.3       1 DMP1        0.0000
     68 H7R        -8.1670   -8.1070   -6.4390 H         1 DMP1        0.0000
     69 H7S        -8.1280   -6.5660   -7.3610 H         1 DMP1        0.0000
     70 C28        -9.9330   -6.8500   -6.1960 C.3       1 DMP1        0.0000
     71 H8R       -10.1230   -5.8000   -5.8730 H         1 DMP1        0.0000
     72 H8S       -10.2850   -7.5190   -5.3810 H         1 DMP1        0.0000
     73 C29       -10.7460   -7.0970   -7.4740 C.3       1 DMP1        0.0000
     74 H9R       -10.3760   -6.4180   -8.2750 H         1 DMP1        0.0000
     75 H9S       -11.8090   -6.8300   -7.2750 H         1 DMP1        0.0000
     76 C210      -10.6960   -8.5450   -7.9820 C.3       1 DMP1        0.0000
     77 H10R      -11.0680   -9.2180   -7.1790 H         1 DMP1        0.0000
     78 H10S       -9.6440   -8.8300   -8.2060 H         1 DMP1        0.0000
     79 C211      -11.5460   -8.7180   -9.2490 C.3       1 DMP1        0.0000
     80 H11R      -11.1500   -8.0290  -10.0300 H         1 DMP1        0.0000
     81 H11S      -12.5910   -8.4060   -9.0280 H         1 DMP1        0.0000
     82 C212      -11.5630  -10.1450   -9.8180 C.3       1 DMP1        0.0000
     83 H12R      -10.5220  -10.4770  -10.0290 H         1 DMP1        0.0000
     84 H12S      -12.1110  -10.1240  -10.7880 H         1 DMP1        0.0000
     85 C213      -12.2520  -11.1650   -8.9010 C.3       1 DMP1        0.0000
     86 H13R      -13.2590  -10.7770   -8.6270 H         1 DMP1        0.0000
     87 H13S      -11.6650  -11.2660   -7.9600 H         1 DMP1        0.0000
     88 C214      -12.4080  -12.5450   -9.5440 C.3       1 DMP1        0.0000
     89 H14R      -11.4150  -12.9550   -9.8190 H         1 DMP1        0.0000
     90 H14S      -13.0260  -12.4790  -10.4660 H         1 DMP1        0.0000
     91 H14T      -12.8980  -13.2530   -8.8420 H         1 DMP1        0.0000
     92 C33        -6.5700   -8.4740   -0.9850 C.3       1 DMP1        0.0000
     93 H3X        -6.1820   -9.2630   -0.3020 H         1 DMP1        0.0000
     94 H3Y        -5.7110   -8.1220   -1.6050 H         1 DMP1        0.0000
     95 C34        -7.6190   -9.0760   -1.9320 C.3       1 DMP1        0.0000
     96 H4X        -8.0420   -8.2550   -2.5550 H         1 DMP1        0.0000
     97 H4Y        -8.4540   -9.5190   -1.3470 H         1 DMP1        0.0000
     98 C35        -7.0230  -10.1330   -2.8710 C.3       1 DMP1        0.0000
     99 H5X        -6.6880  -11.0180   -2.2870 H         1 DMP1        0.0000
    100 H5Y        -6.1200   -9.6920   -3.3520 H         1 DMP1        0.0000
    101 C36        -7.9910  -10.5780   -3.9800 C.3       1 DMP1        0.0000
    102 H6X        -8.4900   -9.6770   -4.4020 H         1 DMP1        0.0000
    103 H6Y        -8.7810  -11.2330   -3.5550 H         1 DMP1        0.0000
    104 C37        -7.2500  -11.2970   -5.1170 C.3       1 DMP1        0.0000
    105 H7X        -6.7510  -12.2100   -4.7210 H         1 DMP1        0.0000
    106 H7Y        -6.4490  -10.6150   -5.4830 H         1 DMP1        0.0000
    107 C38        -8.1360  -11.6840   -6.3120 C.3       1 DMP1        0.0000
    108 H8X        -8.8640  -10.8720   -6.5310 H         1 DMP1        0.0000
    109 H8Y        -8.7140  -12.5980   -6.0520 H         1 DMP1        0.0000
    110 C39        -7.2880  -11.9390   -7.5670 C.3       1 DMP1        0.0000
    111 H9X        -6.3840  -12.5170   -7.2690 H         1 DMP1        0.0000
    112 H9Y        -6.9420  -10.9620   -7.9720 H         1 DMP1        0.0000
    113 C310       -8.0100  -12.7270   -8.6690 C.3       1 DMP1        0.0000
    114 H10X       -8.9470  -12.2020   -8.9590 H         1 DMP1        0.0000
    115 H10Y       -8.2880  -13.7260   -8.2650 H         1 DMP1        0.0000
    116 C311       -7.1100  -12.9090   -9.9020 C.3       1 DMP1        0.0000
    117 H11X       -6.0810  -13.1610   -9.5600 H         1 DMP1        0.0000
    118 H11Y       -7.0510  -11.9390  -10.4460 H         1 DMP1        0.0000
    119 C312       -7.5620  -14.0090  -10.8750 C.3       1 DMP1        0.0000
    120 H12X       -7.4880  -15.0010  -10.3750 H         1 DMP1        0.0000
    121 H12Y       -6.8610  -14.0180  -11.7400 H         1 DMP1        0.0000
    122 C313       -8.9890  -13.8240  -11.4030 C.3       1 DMP1        0.0000
    123 H13X       -9.1120  -12.7720  -11.7500 H         1 DMP1        0.0000
    124 H13Y       -9.6990  -13.9880  -10.5630 H         1 DMP1        0.0000
    125 C314       -9.3380  -14.7760  -12.5500 C.3       1 DMP1        0.0000
    126 H14X       -9.2220  -15.8330  -12.2290 H         1 DMP1        0.0000
    127 H14Y       -8.6660  -14.5990  -13.4180 H         1 DMP1        0.0000
    128 H14Z      -10.3870  -14.6200  -12.8830 H         1 DMP1        0.0000
@<TRIPOS>BOND
     1  127  125 1 
     2  128  125 1 
     3  125  126 1 
     4  125  122 1 
     5  123  122 1 
     6  121  119 1 
     7  122  119 1 
     8  122  124 1 
     9  119  120 1 
    10  119  116 1 
    11   84   82 1 
    12   90   88 1 
    13  118  116 1 
    14   80   79 1 
    15   83   82 1 
    16  116  117 1 
    17  116  113 1 
    18   89   88 1 
    19   82   79 1 
    20   82   85 1 
    21   88   85 1 
    22   88   91 1 
    23   79   81 1 
    24   79   76 1 
    25  114  113 1 
    26   85   86 1 
    27   85   87 1 
    28  113  115 1 
    29  113  110 1 
    30   74   73 1 
    31   78   76 1 
    32   76   73 1 
    33   76   77 1 
    34  112  110 1 
    35  110  111 1 
    36  110  107 1 
    37   73   75 1 
    38   73   70 1 
    39   69   67 1 
    40  108  107 1 
    41   63   61 1 
    42   68   67 1 
    43   67   70 1 
    44   67   64 1 
    45  107  109 1 
    46  107  104 1 
    47   70   71 1 
    48   70   72 1 
    49   57   55 1 
    50   61   62 1 
    51   61   64 1 
    52   61   58 1 
    53  106  104 1 
    54   64   65 1 
    55   64   66 1 
    56  104  105 1 
    57  104  101 1 
    58   55   56 1 
    59   55   58 1 
    60   55   43 1 
    61   59   58 1 
    62   58   60 1 
    63  102  101 1 
    64  101  103 1 
    65  101   98 1 
    66   44   43 1 
    67   43   45 1 
    68   43   41 1 
    69  100   98 1 
    70   98   99 1 
    71   98   95 1 
    72   12    8 2 
    73   96   95 1 
    74   41   42 2 
    75   41   40 1 
    76   31   30 2 
    77   32   30 1 
    78   95   97 1 
    79   95   92 1 
    80    8   11 1 
    81    8    9 1 
    82    8    7 1 
    83   94   92 1 
    84   40   38 1 
    85    9   10 1 
    86   30   33 1 
    87   30   34 1 
    88    6    5 1 
    89   29   28 1 
    90   92   93 1 
    91   92   52 1 
    92   53   52 1 
    93   33   35 1 
    94    2    1 1 
    95    7    5 1 
    96    5    1 1 
    97    5   13 1 
    98   52   54 1 
    99   52   50 1 
   100   38   35 1 
   101   38   39 1 
   102   38   46 1 
   103   28   34 1 
   104   28    1 1 
   105   28   24 1 
   106   36   35 1 
   107    1    3 1 
   108   35   37 1 
   109   49   50 1 
   110   49   46 1 
   111   50   51 2 
   112   47   46 1 
   113   15   13 1 
   114   15   16 1 
   115   46   48 1 
   116   18   17 1 
   117   13   17 1 
   118   13   14 1 
   119   26   24 1 
   120   26   27 1 
   121   24   17 1 
   122   24   25 1 
   123    3    4 1 
   124   17   19 1 
   125   19   20 1 
   126   22   20 2 
   127   20   21 1 
   128   20   23 1 
