@<TRIPOS>MOLECULE
C:\Users\Praveer\PycharmProjects\pdb_to_mol2_converter\data\pdb\dmpi2d.pdb
  128   128     0     0     0
SMALL
GASTEIGER

@<TRIPOS>ATOM
      1 C12         1.6700    0.0570    0.0400 C.3       1 DMP1        0.0000
      2 H2          2.1420   -0.5320   -0.7850 H         1 DMP1        0.0000
      3 O2          2.0720   -0.5440    1.2680 O.3       1 DMP1        0.0000
      4 HO2         3.0630   -0.5570    1.2020 H         1 DMP1        0.0000
      5 C13         2.1860    1.4840   -0.0980 C.3       1 DMP1        0.0000
      6 H3          1.7720    1.8660   -1.0640 H         1 DMP1        0.0000
      7 O3          3.6070    1.5910   -0.2410 O.3       1 DMP1        0.0000
      8 P3          4.8500    0.9500    0.6370 P.3       1 DMP1        0.0000
      9 OP32        4.5900   -0.5520    0.7060 O.3       1 DMP1        0.0000
     10 OP33        6.1170    1.2790   -0.1500 O.2       1 DMP1        0.0000
     11 OP34        4.8170    1.5910    2.0180 O.3       1 DMP1        0.0000
     12 C14         1.5730    2.3900    0.9680 C.3       1 DMP1        0.0000
     13 H4          2.1940    2.1140    1.8630 H         1 DMP1        0.0000
     14 O4          1.8280    3.7810    0.7620 O.3       1 DMP1        0.0000
     15 P4          0.9800    4.8310   -0.1480 P.3       1 DMP1        0.0000
     16 OP42       -0.0670    5.2060    1.0000 O.3       1 DMP1        0.0000
     17 HP42       -0.2570    4.3980    1.4920 H         1 DMP1        0.0000
     18 OP43        0.2340    4.1250   -1.2680 O.2       1 DMP1        0.0000
     19 OP44        1.7830    6.0810   -0.4760 O.3       1 DMP1        0.0000
     20 C15         0.1240    2.0400    1.3970 C.3       1 DMP1        0.0000
     21 H5         -0.5200    2.6830    0.7490 H         1 DMP1        0.0000
     22 O5         -0.0980    2.4890    2.7370 O.3       1 DMP1        0.0000
     23 HO5         0.7890    2.5600    3.1110 H         1 DMP1        0.0000
     24 C16        -0.4850    0.6540    1.0620 C.3       1 DMP1        0.0000
     25 H6         -0.2700   -0.0010    1.9400 H         1 DMP1        0.0000
     26 O6         -1.9110    0.6970    0.9310 O.3       1 DMP1        0.0000
     27 HO6        -2.1540    0.1230    0.1750 H         1 DMP1        0.0000
     28 C11         0.1670   -0.0070   -0.1440 C.3       1 DMP1        0.0000
     29 H1         -0.0750    0.5870   -1.0620 H         1 DMP1        0.0000
     30 P          -1.3950   -1.8550   -1.3150 P.3       1 DMP1        0.0000
     31 O13        -2.5610   -0.9660   -1.1070 O.3       1 DMP1        0.0000
     32 O14        -0.8850   -2.0010   -2.6950 O.2       1 DMP1        0.0000
     33 O11        -1.7390   -3.2980   -0.7520 O.3       1 DMP1        0.0000
     34 O12        -0.2060   -1.3890   -0.2930 O.3       1 DMP1        0.0000
     35 C1         -2.6750   -3.5240    0.3030 C.3       1 DMP1        0.0000
     36 HA         -3.2550   -2.6010    0.5390 H         1 DMP1        0.0000
     37 HB         -2.1330   -3.8150    1.2290 H         1 DMP1        0.0000
     38 C2         -3.7030   -4.6380   -0.0720 C.3       1 DMP1        0.0000
     39 HS         -3.2630   -5.6200    0.2260 H         1 DMP1        0.0000
     40 O21        -3.9730   -4.5800   -1.4870 O.3       1 DMP1        0.0000
     41 C21        -3.1470   -5.3130   -2.2250 C.2       1 DMP1        0.0000
     42 O22        -2.5560   -6.3120   -1.8560 O.2       1 DMP1        0.0000
     43 C22        -3.0690   -4.7400   -3.6390 C.3       1 DMP1        0.0000
     44 H2R        -1.9880   -4.6870   -3.8910 H         1 DMP1        0.0000
     45 H2S        -3.4640   -3.7040   -3.6410 H         1 DMP1        0.0000
     46 C3         -5.0330   -4.4770    0.7230 C.3       1 DMP1        0.0000
     47 HX         -5.3420   -3.4150    0.6060 H         1 DMP1        0.0000
     48 HY         -4.8410   -4.6430    1.8080 H         1 DMP1        0.0000
     49 O31        -6.1020   -5.3080    0.2150 O.3       1 DMP1        0.0000
     50 C31        -6.0410   -6.5870    0.5600 C.2       1 DMP1        0.0000
     51 O32        -5.2590   -7.0710    1.3550 O.2       1 DMP1        0.0000
     52 C32        -7.1410   -7.3600   -0.1750 C.3       1 DMP1        0.0000
     53 H2X        -7.6710   -6.6620   -0.8560 H         1 DMP1        0.0000
     54 H2Y        -7.8610   -7.7350    0.5800 H         1 DMP1        0.0000
     55 C23        -3.8070   -5.6300   -4.6610 C.3       1 DMP1        0.0000
     56 H3R        -3.4480   -6.6810   -4.5810 H         1 DMP1        0.0000
     57 H3S        -3.5600   -5.2670   -5.6850 H         1 DMP1        0.0000
     58 C24        -5.3280   -5.5780   -4.4790 C.3       1 DMP1        0.0000
     59 H4R        -5.6620   -4.5190   -4.5720 H         1 DMP1        0.0000
     60 H4S        -5.5970   -5.9200   -3.4540 H         1 DMP1        0.0000
     61 C25        -6.0870   -6.4320   -5.5010 C.3       1 DMP1        0.0000
     62 H5R        -5.7610   -7.4930   -5.4200 H         1 DMP1        0.0000
     63 H5S        -5.8350   -6.0740   -6.5240 H         1 DMP1        0.0000
     64 C26        -7.6030   -6.3450   -5.2920 C.3       1 DMP1        0.0000
     65 H6R        -7.8890   -5.2680   -5.2580 H         1 DMP1        0.0000
     66 H6S        -7.8650   -6.7930   -4.3090 H         1 DMP1        0.0000
     67 C27        -8.4100   -7.0260   -6.4040 C.3       1 DMP1        0.0000
     68 H7R        -8.1600   -8.1090   -6.4500 H         1 DMP1        0.0000
     69 H7S        -8.1190   -6.5700   -7.3770 H         1 DMP1        0.0000
     70 C28        -9.9210   -6.8430   -6.2020 C.3       1 DMP1        0.0000
     71 H8R       -10.1010   -5.7930   -5.8750 H         1 DMP1        0.0000
     72 H8S       -10.2730   -7.5130   -5.3880 H         1 DMP1        0.0000
     73 C29       -10.7450   -7.0800   -7.4760 C.3       1 DMP1        0.0000
     74 H9R       -10.3750   -6.3990   -8.2760 H         1 DMP1        0.0000
     75 H9S       -11.8040   -6.8050   -7.2700 H         1 DMP1        0.0000
     76 C210      -10.7090   -8.5260   -7.9900 C.3       1 DMP1        0.0000
     77 H10R      -11.0920   -9.1980   -7.1910 H         1 DMP1        0.0000
     78 H10S       -9.6580   -8.8210   -8.2090 H         1 DMP1        0.0000
     79 C211      -11.5520   -8.6950   -9.2620 C.3       1 DMP1        0.0000
     80 H11R      -11.1570   -8.0020  -10.0400 H         1 DMP1        0.0000
     81 H11S      -12.6010   -8.3910   -9.0460 H         1 DMP1        0.0000
     82 C212      -11.5560  -10.1220   -9.8350 C.3       1 DMP1        0.0000
     83 H12R      -10.5100  -10.4440  -10.0370 H         1 DMP1        0.0000
     84 H12S      -12.0960  -10.1050  -10.8090 H         1 DMP1        0.0000
     85 C213      -12.2420  -11.1470   -8.9220 C.3       1 DMP1        0.0000
     86 H13R      -13.2490  -10.7590   -8.6450 H         1 DMP1        0.0000
     87 H13S      -11.6530  -11.2510   -7.9830 H         1 DMP1        0.0000
     88 C214      -12.4030  -12.5260   -9.5660 C.3       1 DMP1        0.0000
     89 H14R      -11.4130  -12.9410   -9.8430 H         1 DMP1        0.0000
     90 H14S      -13.0230  -12.4580  -10.4860 H         1 DMP1        0.0000
     91 H14T      -12.8950  -13.2320   -8.8630 H         1 DMP1        0.0000
     92 C33        -6.5760   -8.5370   -1.0010 C.3       1 DMP1        0.0000
     93 H3X        -6.1800   -9.3290   -0.3260 H         1 DMP1        0.0000
     94 H3Y        -5.7270   -8.1730   -1.6270 H         1 DMP1        0.0000
     95 C34        -7.6320   -9.1330   -1.9420 C.3       1 DMP1        0.0000
     96 H4X        -8.0610   -8.3050   -2.5500 H         1 DMP1        0.0000
     97 H4Y        -8.4630   -9.5840   -1.3560 H         1 DMP1        0.0000
     98 C35        -7.0370  -10.1740   -2.8970 C.3       1 DMP1        0.0000
     99 H5X        -6.7050  -11.0700   -2.3270 H         1 DMP1        0.0000
    100 H5Y        -6.1330   -9.7230   -3.3680 H         1 DMP1        0.0000
    101 C36        -8.0010  -10.5930   -4.0160 C.3       1 DMP1        0.0000
    102 H6X        -8.4760   -9.6790   -4.4410 H         1 DMP1        0.0000
    103 H6Y        -8.8080  -11.2390   -3.6060 H         1 DMP1        0.0000
    104 C37        -7.2620  -11.3140   -5.1490 C.3       1 DMP1        0.0000
    105 H7X        -6.7790  -12.2370   -4.7580 H         1 DMP1        0.0000
    106 H7Y        -6.4490  -10.6410   -5.5080 H         1 DMP1        0.0000
    107 C38        -8.1500  -11.6760   -6.3480 C.3       1 DMP1        0.0000
    108 H8X        -8.8620  -10.8470   -6.5610 H         1 DMP1        0.0000
    109 H8Y        -8.7450  -12.5820   -6.0990 H         1 DMP1        0.0000
    110 C39        -7.2990  -11.9300   -7.5990 C.3       1 DMP1        0.0000
    111 H9X        -6.3880  -12.4960   -7.2980 H         1 DMP1        0.0000
    112 H9Y        -6.9600  -10.9520   -8.0100 H         1 DMP1        0.0000
    113 C310       -8.0080  -12.7320   -8.6970 C.3       1 DMP1        0.0000
    114 H10X       -8.9550  -12.2250   -8.9880 H         1 DMP1        0.0000
    115 H10Y       -8.2680  -13.7360   -8.2920 H         1 DMP1        0.0000
    116 C311       -7.1060  -12.9000   -9.9290 C.3       1 DMP1        0.0000
    117 H11X       -6.0770  -13.1540   -9.5850 H         1 DMP1        0.0000
    118 H11Y       -7.0470  -11.9240  -10.4610 H         1 DMP1        0.0000
    119 C312       -7.5570  -13.9910  -10.9130 C.3       1 DMP1        0.0000
    120 H12X       -7.4770  -14.9860  -10.4210 H         1 DMP1        0.0000
    121 H12Y       -6.8570  -13.9920  -11.7800 H         1 DMP1        0.0000
    122 C313       -8.9870  -13.8070  -11.4350 C.3       1 DMP1        0.0000
    123 H13X       -9.1120  -12.7560  -11.7810 H         1 DMP1        0.0000
    124 H13Y       -9.6950  -13.9750  -10.5930 H         1 DMP1        0.0000
    125 C314       -9.3410  -14.7560  -12.5830 C.3       1 DMP1        0.0000
    126 H14X       -9.2290  -15.8150  -12.2650 H         1 DMP1        0.0000
    127 H14Y       -8.6710  -14.5790  -13.4520 H         1 DMP1        0.0000
    128 H14Z      -10.3900  -14.5960  -12.9110 H         1 DMP1        0.0000
@<TRIPOS>BOND
     1  127  125 1 
     2  128  125 1 
     3  125  126 1 
     4  125  122 1 
     5  123  122 1 
     6  121  119 1 
     7  122  119 1 
     8  122  124 1 
     9  119  120 1 
    10  119  116 1 
    11   84   82 1 
    12   90   88 1 
    13  118  116 1 
    14   80   79 1 
    15   83   82 1 
    16  116  117 1 
    17  116  113 1 
    18   89   88 1 
    19   82   79 1 
    20   82   85 1 
    21   88   85 1 
    22   88   91 1 
    23   79   81 1 
    24   79   76 1 
    25  114  113 1 
    26   85   86 1 
    27   85   87 1 
    28  113  115 1 
    29  113  110 1 
    30   74   73 1 
    31   78   76 1 
    32  112  110 1 
    33   76   73 1 
    34   76   77 1 
    35  110  111 1 
    36  110  107 1 
    37   73   75 1 
    38   73   70 1 
    39   69   67 1 
    40  108  107 1 
    41   63   61 1 
    42   68   67 1 
    43   67   70 1 
    44   67   64 1 
    45  107  109 1 
    46  107  104 1 
    47   70   71 1 
    48   70   72 1 
    49   57   55 1 
    50  106  104 1 
    51   61   62 1 
    52   61   64 1 
    53   61   58 1 
    54   64   65 1 
    55   64   66 1 
    56  104  105 1 
    57  104  101 1 
    58   55   56 1 
    59   55   58 1 
    60   55   43 1 
    61   59   58 1 
    62   58   60 1 
    63  102  101 1 
    64  101  103 1 
    65  101   98 1 
    66   44   43 1 
    67   45   43 1 
    68   43   41 1 
    69  100   98 1 
    70   98   99 1 
    71   98   95 1 
    72   32   30 2 
    73   96   95 1 
    74   41   42 2 
    75   41   40 1 
    76   95   97 1 
    77   95   92 1 
    78   94   92 1 
    79   40   38 1 
    80   30   31 1 
    81   30   33 1 
    82   30   34 1 
    83   18   15 2 
    84    6    5 1 
    85   29   28 1 
    86   92   93 1 
    87   92   52 1 
    88   53   52 1 
    89    2    1 1 
    90   33   35 1 
    91   19   15 1 
    92   34   28 1 
    93    7    5 1 
    94    7    8 1 
    95   52   50 1 
    96   52   54 1 
    97   10    8 2 
    98   15   14 1 
    99   15   16 1 
   100   28    1 1 
   101   28   24 1 
   102    5    1 1 
   103    5   12 1 
   104   38   39 1 
   105   38   35 1 
   106   38   46 1 
   107    1    3 1 
   108   27   26 1 
   109   49   50 1 
   110   49   46 1 
   111   35   36 1 
   112   35   37 1 
   113   50   51 2 
   114   47   46 1 
   115    8    9 1 
   116    8   11 1 
   117   46   48 1 
   118   21   20 1 
   119   14   12 1 
   120   26   24 1 
   121   12   20 1 
   122   12   13 1 
   123   16   17 1 
   124   24   20 1 
   125   24   25 1 
   126    4    3 1 
   127   20   22 1 
   128   22   23 1 
