@<TRIPOS>MOLECULE
C:\Users\Praveer\PycharmProjects\pdb_to_mol2_converter\data\pdb\dmpi35.pdb
  131   131     0     0     0
SMALL
GASTEIGER

@<TRIPOS>ATOM
      1 C12         1.3060   -0.0420    0.0570 C.3       1 DMP1        0.0000
      2 H2          1.7040   -0.5730   -0.8420 H         1 DMP1        0.0000
      3 O2          1.6150   -0.8490    1.1950 O.3       1 DMP1        0.0000
      4 HO2         2.5950   -0.9790    1.0920 H         1 DMP1        0.0000
      5 C13         2.0320    1.3040    0.1500 C.3       1 DMP1        0.0000
      6 H3          1.9410    1.7300   -0.8820 H         1 DMP1        0.0000
      7 O3          3.4460    1.2240    0.4250 O.3       1 DMP1        0.0000
      8 P3          4.5500    0.0920   -0.0670 P.3       1 DMP1        0.0000
      9 OP32        5.9160    0.5950    0.4000 O.3       1 DMP1        0.0000
     10 OP33        4.4620   -0.0250   -1.5850 O.2       1 DMP1        0.0000
     11 OP34        4.1550   -1.2020    0.6430 O.3       1 DMP1        0.0000
     12 C14         1.3260    2.3520    1.0650 C.3       1 DMP1        0.0000
     13 H4          1.8780    2.1670    2.0240 H         1 DMP1        0.0000
     14 O4          1.6750    3.7010    0.7340 O.3       1 DMP1        0.0000
     15 P4          0.9260    4.9330   -0.0700 P.3       1 DMP1        0.0000
     16 OP42        1.8830    6.1240    0.0070 O.3       1 DMP1        0.0000
     17 OP43       -0.3740    5.2310    0.6750 O.3       1 DMP1        0.0000
     18 OP44        0.6860    4.4860   -1.5090 O.2       1 DMP1        0.0000
     19 C15        -0.1530    2.0990    1.5050 C.3       1 DMP1        0.0000
     20 H5         -0.7310    2.8240    0.8730 H         1 DMP1        0.0000
     21 O5         -0.3270    2.3630    2.9160 O.3       1 DMP1        0.0000
     22 P5         -1.5600    3.3050    3.4520 P.3       1 DMP1        0.0000
     23 OP52       -1.1050    4.8010    3.1700 O.3       1 DMP1        0.0000
     24 HP52       -0.8020    4.9030    2.2350 H         1 DMP1        0.0000
     25 OP53       -2.8160    2.9780    2.6490 O.2       1 DMP1        0.0000
     26 OP54       -1.6950    3.1230    4.9620 O.3       1 DMP1        0.0000
     27 C16        -0.7960    0.7440    1.1330 C.3       1 DMP1        0.0000
     28 H6         -0.5680    0.0420    1.9710 H         1 DMP1        0.0000
     29 O6         -2.2210    0.8620    1.0990 O.3       1 DMP1        0.0000
     30 HO6        -2.4320    1.7020    1.5640 H         1 DMP1        0.0000
     31 C11        -0.2060    0.1180   -0.1260 C.3       1 DMP1        0.0000
     32 H1         -0.3640    0.8330   -0.9710 H         1 DMP1        0.0000
     33 P          -1.8110   -1.5030   -1.6390 P.3       1 DMP1        0.0000
     34 O13        -2.8440   -0.4600   -1.8020 O.3       1 DMP1        0.0000
     35 O14        -1.0870   -1.9210   -2.8600 O.2       1 DMP1        0.0000
     36 O11        -2.5660   -2.7980   -1.0920 O.3       1 DMP1        0.0000
     37 O12        -0.7570   -1.1850   -0.4110 O.3       1 DMP1        0.0000
     38 C1         -2.8330   -3.0060    0.2920 C.3       1 DMP1        0.0000
     39 HA         -2.6360   -2.1050    0.9270 H         1 DMP1        0.0000
     40 HB         -2.1620   -3.8170    0.6470 H         1 DMP1        0.0000
     41 C2         -4.3150   -3.4180    0.4870 C.3       1 DMP1        0.0000
     42 HS         -4.5960   -4.0720   -0.3740 H         1 DMP1        0.0000
     43 O21        -5.0850   -2.2090    0.5790 O.3       1 DMP1        0.0000
     44 C21        -5.7590   -1.8760   -0.5120 C.2       1 DMP1        0.0000
     45 O22        -6.1870   -2.6530   -1.3440 O.2       1 DMP1        0.0000
     46 C22        -5.9730   -0.3590   -0.5230 C.3       1 DMP1        0.0000
     47 H2R        -5.1950    0.0440   -1.2090 H         1 DMP1        0.0000
     48 H2S        -5.7690    0.0610    0.4820 H         1 DMP1        0.0000
     49 C3         -4.5100   -4.2440    1.7880 C.3       1 DMP1        0.0000
     50 HX         -4.5170   -3.5700    2.6690 H         1 DMP1        0.0000
     51 HY         -3.6000   -4.8750    1.8950 H         1 DMP1        0.0000
     52 O31        -5.6300   -5.1440    1.7060 O.3       1 DMP1        0.0000
     53 C31        -6.8830   -4.8570    2.0840 C.2       1 DMP1        0.0000
     54 O32        -7.8210   -5.6210    1.9240 O.2       1 DMP1        0.0000
     55 C32        -7.0470   -3.5140    2.7990 C.3       1 DMP1        0.0000
     56 H2X        -6.8280   -2.6990    2.0850 H         1 DMP1        0.0000
     57 H2Y        -6.3430   -3.4690    3.6540 H         1 DMP1        0.0000
     58 C23        -7.3680    0.0720   -1.0370 C.3       1 DMP1        0.0000
     59 H3R        -7.6800   -0.5490   -1.9050 H         1 DMP1        0.0000
     60 H3S        -7.2660    1.1210   -1.4050 H         1 DMP1        0.0000
     61 C24        -8.4540    0.0740    0.0500 C.3       1 DMP1        0.0000
     62 H4R        -8.0830    0.6660    0.9160 H         1 DMP1        0.0000
     63 H4S        -8.6360   -0.9660    0.4010 H         1 DMP1        0.0000
     64 C25        -9.7700    0.6860   -0.4570 C.3       1 DMP1        0.0000
     65 H5R       -10.1390    0.0550   -1.2970 H         1 DMP1        0.0000
     66 H5S        -9.5700    1.7010   -0.8650 H         1 DMP1        0.0000
     67 C26       -10.8770    0.7850    0.6080 C.3       1 DMP1        0.0000
     68 H6R       -10.9880   -0.1970    1.1140 H         1 DMP1        0.0000
     69 H6S       -11.8320    1.0030    0.0780 H         1 DMP1        0.0000
     70 C27       -10.6420    1.8930    1.6510 C.3       1 DMP1        0.0000
     71 H7R       -10.6130    2.8730    1.1230 H         1 DMP1        0.0000
     72 H7S        -9.6470    1.7430    2.1270 H         1 DMP1        0.0000
     73 C28       -11.7090    1.9560    2.7620 C.3       1 DMP1        0.0000
     74 H8R       -11.4740    2.8140    3.4320 H         1 DMP1        0.0000
     75 H8S       -11.6460    1.0290    3.3750 H         1 DMP1        0.0000
     76 C29       -13.1470    2.1070    2.2420 C.3       1 DMP1        0.0000
     77 H9R       -13.3900    1.2310    1.5990 H         1 DMP1        0.0000
     78 H9S       -13.2200    3.0210    1.6120 H         1 DMP1        0.0000
     79 C210      -14.2040    2.1710    3.3550 C.3       1 DMP1        0.0000
     80 H10R      -14.0830    3.1080    3.9410 H         1 DMP1        0.0000
     81 H10S      -14.0450    1.3140    4.0490 H         1 DMP1        0.0000
     82 C211      -15.6310    2.0850    2.7910 C.3       1 DMP1        0.0000
     83 H11R      -15.6930    1.1890    2.1310 H         1 DMP1        0.0000
     84 H11S      -15.8390    2.9810    2.1640 H         1 DMP1        0.0000
     85 C212      -16.7040    1.9510    3.8800 C.3       1 DMP1        0.0000
     86 H12R      -16.7210    2.8720    4.5040 H         1 DMP1        0.0000
     87 H12S      -16.4360    1.0980    4.5430 H         1 DMP1        0.0000
     88 C213      -18.1050    1.6970    3.3060 C.3       1 DMP1        0.0000
     89 H13R      -18.0600    0.8080    2.6360 H         1 DMP1        0.0000
     90 H13S      -18.4060    2.5680    2.6820 H         1 DMP1        0.0000
     91 C214      -19.1640    1.4530    4.3850 C.3       1 DMP1        0.0000
     92 H14R      -19.2510    2.3390    5.0500 H         1 DMP1        0.0000
     93 H14S      -18.8850    0.5740    5.0060 H         1 DMP1        0.0000
     94 H14T      -20.1560    1.2560    3.9250 H         1 DMP1        0.0000
     95 C33        -8.4850   -3.3210    3.3420 C.3       1 DMP1        0.0000
     96 H3X        -8.7060   -4.1170    4.0900 H         1 DMP1        0.0000
     97 H3Y        -9.2190   -3.4280    2.5110 H         1 DMP1        0.0000
     98 C34        -8.6700   -1.9480    4.0020 C.3       1 DMP1        0.0000
     99 H4X        -8.6230   -1.1580    3.2190 H         1 DMP1        0.0000
    100 H4Y        -7.8190   -1.7750    4.6990 H         1 DMP1        0.0000
    101 C35        -9.9800   -1.8110    4.7990 C.3       1 DMP1        0.0000
    102 H5X        -9.9920   -0.8110    5.2890 H         1 DMP1        0.0000
    103 H5Y        -9.9950   -2.5820    5.6020 H         1 DMP1        0.0000
    104 C36       -11.2490   -1.9540    3.9450 C.3       1 DMP1        0.0000
    105 H6X       -11.2520   -2.9500    3.4480 H         1 DMP1        0.0000
    106 H6Y       -11.2380   -1.1820    3.1460 H         1 DMP1        0.0000
    107 C37       -12.5430   -1.8180    4.7630 C.3       1 DMP1        0.0000
    108 H7X       -12.5580   -0.8330    5.2800 H         1 DMP1        0.0000
    109 H7Y       -12.5540   -2.6110    5.5440 H         1 DMP1        0.0000
    110 C38       -13.8030   -1.9560    3.8940 C.3       1 DMP1        0.0000
    111 H8X       -13.7110   -2.8840    3.2840 H         1 DMP1        0.0000
    112 H8Y       -13.8630   -1.0940    3.1920 H         1 DMP1        0.0000
    113 C39       -15.0970   -2.0470    4.7170 C.3       1 DMP1        0.0000
    114 H9X       -15.2180   -1.1270    5.3310 H         1 DMP1        0.0000
    115 H9Y       -15.0140   -2.9120    5.4130 H         1 DMP1        0.0000
    116 C310      -16.3400   -2.2400    3.8350 C.3       1 DMP1        0.0000
    117 H10X      -16.1530   -3.0800    3.1290 H         1 DMP1        0.0000
    118 H10Y      -16.5030   -1.3210    3.2300 H         1 DMP1        0.0000
    119 C311      -17.6110   -2.5570    4.6370 C.3       1 DMP1        0.0000
    120 H11X      -17.7950   -1.7460    5.3760 H         1 DMP1        0.0000
    121 H11Y      -17.4560   -3.5030    5.2030 H         1 DMP1        0.0000
    122 C312      -18.8440   -2.7090    3.7340 C.3       1 DMP1        0.0000
    123 H12X      -18.6290   -3.4680    2.9490 H         1 DMP1        0.0000
    124 H12Y      -19.0360   -1.7390    3.2220 H         1 DMP1        0.0000
    125 C313      -20.1080   -3.1330    4.4930 C.3       1 DMP1        0.0000
    126 H13X      -20.2970   -2.4090    5.3180 H         1 DMP1        0.0000
    127 H13Y      -19.9320   -4.1310    4.9580 H         1 DMP1        0.0000
    128 C314      -21.3470   -3.2060    3.5950 C.3       1 DMP1        0.0000
    129 H14X      -21.1790   -3.9170    2.7580 H         1 DMP1        0.0000
    130 H14Y      -21.5700   -2.2060    3.1640 H         1 DMP1        0.0000
    131 H14Z      -22.2330   -3.5450    4.1730 H         1 DMP1        0.0000
@<TRIPOS>BOND
     1   35   33 2 
     2   59   58 1 
     3   34   33 1 
     4   33   36 1 
     5   33   37 1 
     6   10    8 2 
     7   18   15 2 
     8   60   58 1 
     9   45   44 2 
    10   65   64 1 
    11   47   46 1 
    12   36   38 1 
    13   58   46 1 
    14   58   61 1 
    15   32   31 1 
    16    6    5 1 
    17   66   64 1 
    18    2    1 1 
    19   46   44 1 
    20   46   48 1 
    21   44   43 1 
    22   64   61 1 
    23   64   67 1 
    24   37   31 1 
    25   42   41 1 
    26   31    1 1 
    27   31   27 1 
    28   15   16 1 
    29   15   17 1 
    30   15   14 1 
    31    8    9 1 
    32    8    7 1 
    33    8   11 1 
    34   61   63 1 
    35   61   62 1 
    36    1    5 1 
    37    1    3 1 
    38   69   67 1 
    39    5    7 1 
    40    5   12 1 
    41   38   41 1 
    42   38   40 1 
    43   38   39 1 
    44   41   43 1 
    45   41   49 1 
    46   67   68 1 
    47   67   70 1 
    48   14   12 1 
    49   20   19 1 
    50   12   19 1 
    51   12   13 1 
    52    4    3 1 
    53   29   27 1 
    54   29   30 1 
    55   71   70 1 
    56   27   19 1 
    57   27   28 1 
    58   19   21 1 
    59   77   76 1 
    60   78   76 1 
    61   70   72 1 
    62   70   73 1 
    63   52   49 1 
    64   52   53 1 
    65   49   51 1 
    66   49   50 1 
    67   54   53 2 
    68   53   55 1 
    69   56   55 1 
    70   83   82 1 
    71   84   82 1 
    72   24   23 1 
    73   76   73 1 
    74   76   79 1 
    75   97   95 1 
    76   89   88 1 
    77   25   22 2 
    78   90   88 1 
    79  129  128 1 
    80   73   75 1 
    81   73   74 1 
    82   82   79 1 
    83   82   85 1 
    84   55   95 1 
    85   55   57 1 
    86   21   22 1 
    87  123  122 1 
    88  117  116 1 
    89  106  104 1 
    90  130  128 1 
    91   23   22 1 
    92  112  110 1 
    93   99   98 1 
    94  124  122 1 
    95  118  116 1 
    96  111  110 1 
    97   88   85 1 
    98   88   91 1 
    99   95   98 1 
   100   95   96 1 
   101   79   80 1 
   102   79   81 1 
   103  105  104 1 
   104   22   26 1 
   105  128  131 1 
   106  128  125 1 
   107  122  125 1 
   108  122  119 1 
   109  116  119 1 
   110  116  113 1 
   111   85   86 1 
   112   85   87 1 
   113  110  113 1 
   114  110  107 1 
   115   94   91 1 
   116  104  107 1 
   117  104  101 1 
   118   98  100 1 
   119   98  101 1 
   120   91   93 1 
   121   91   92 1 
   122  125  127 1 
   123  125  126 1 
   124  119  121 1 
   125  119  120 1 
   126  113  114 1 
   127  113  115 1 
   128  107  108 1 
   129  107  109 1 
   130  101  102 1 
   131  101  103 1 
