@<TRIPOS>MOLECULE
C:\Users\Praveer\PycharmProjects\pdb_to_mol2_converter\data\pdb\dmpi2b.pdb
  128   128     0     0     0
SMALL
GASTEIGER

@<TRIPOS>ATOM
      1 C12         1.4450   -0.1100   -0.0010 C.3       1 DMP1        0.0000
      2 H2          1.8620   -0.7400   -0.8260 H         1 DMP1        0.0000
      3 O2          2.0050   -0.5610    1.2280 O.3       1 DMP1        0.0000
      4 HO2         2.8380   -0.0710    1.2420 H         1 DMP1        0.0000
      5 C13         1.8870    1.3160   -0.2280 C.3       1 DMP1        0.0000
      6 H3          1.4610    1.6430   -1.2100 H         1 DMP1        0.0000
      7 O3          3.3210    1.3220   -0.2820 O.3       1 DMP1        0.0000
      8 P3          4.1990    2.3540   -1.2220 P.3       1 DMP1        0.0000
      9 OP32        3.6100    3.7300   -0.9550 O.3       1 DMP1        0.0000
     10 OP33        5.6300    2.2080   -0.7190 O.3       1 DMP1        0.0000
     11 OP34        4.0130    1.8830   -2.6610 O.2       1 DMP1        0.0000
     12 C14         1.3580    2.2260    0.8730 C.3       1 DMP1        0.0000
     13 H4          2.0970    2.0640    1.7060 H         1 DMP1        0.0000
     14 O4          1.4960    3.6010    0.5330 O.3       1 DMP1        0.0000
     15 HO4         2.3310    3.6670   -0.0080 H         1 DMP1        0.0000
     16 C15        -0.0100    1.8930    1.5230 C.3       1 DMP1        0.0000
     17 H5         -0.6890    2.6630    1.0650 H         1 DMP1        0.0000
     18 O5          0.0610    2.1750    2.9310 O.3       1 DMP1        0.0000
     19 P5         -1.1700    2.1320    3.9880 P.3       1 DMP1        0.0000
     20 OP52       -0.6970    0.7270    4.5650 O.3       1 DMP1        0.0000
     21 HP52        0.0420    0.4460    4.0100 H         1 DMP1        0.0000
     22 OP53       -2.5030    1.9830    3.2720 O.2       1 DMP1        0.0000
     23 OP54       -1.0130    3.2130    5.0470 O.3       1 DMP1        0.0000
     24 C16        -0.6770    0.5530    1.1320 C.3       1 DMP1        0.0000
     25 H6         -0.4960   -0.1200    2.0080 H         1 DMP1        0.0000
     26 O6         -2.0960    0.6750    1.0360 O.3       1 DMP1        0.0000
     27 HO6        -2.3880    1.1550    1.8410 H         1 DMP1        0.0000
     28 C11        -0.0660   -0.2210   -0.0320 C.3       1 DMP1        0.0000
     29 H1         -0.4310    0.2750   -0.9680 H         1 DMP1        0.0000
     30 P          -0.8740   -2.4500   -1.3140 P.3       1 DMP1        0.0000
     31 O13        -1.9350   -1.7560   -2.0810 O.2       1 DMP1        0.0000
     32 O14         0.3260   -2.8760   -2.0610 O.3       1 DMP1        0.0000
     33 O11        -1.5290   -3.7400   -0.6560 O.3       1 DMP1        0.0000
     34 O12        -0.4710   -1.5980    0.0330 O.3       1 DMP1        0.0000
     35 C1         -2.6450   -3.6270    0.2340 C.3       1 DMP1        0.0000
     36 HA         -3.1480   -2.6300    0.1540 H         1 DMP1        0.0000
     37 HB         -2.2940   -3.7410    1.2820 H         1 DMP1        0.0000
     38 C2         -3.7210   -4.7060   -0.0770 C.3       1 DMP1        0.0000
     39 HS         -3.3150   -5.6990    0.2320 H         1 DMP1        0.0000
     40 O21        -4.0140   -4.6560   -1.4850 O.3       1 DMP1        0.0000
     41 C21        -3.2070   -5.4100   -2.2220 C.2       1 DMP1        0.0000
     42 O22        -2.6850   -6.4520   -1.8660 O.2       1 DMP1        0.0000
     43 C22        -3.0650   -4.8030   -3.6150 C.3       1 DMP1        0.0000
     44 H2R        -1.9770   -4.7830   -3.8390 H         1 DMP1        0.0000
     45 H2S        -3.4260   -3.7530   -3.5970 H         1 DMP1        0.0000
     46 C3         -5.0290   -4.4750    0.7360 C.3       1 DMP1        0.0000
     47 HX         -5.3060   -3.4050    0.6060 H         1 DMP1        0.0000
     48 HY         -4.8280   -4.6370    1.8200 H         1 DMP1        0.0000
     49 O31        -6.1290   -5.2830    0.2590 O.3       1 DMP1        0.0000
     50 C31        -6.0740   -6.5660    0.5910 C.2       1 DMP1        0.0000
     51 O32        -5.2950   -7.0640    1.3830 O.2       1 DMP1        0.0000
     52 C32        -7.1690   -7.3300   -0.1590 C.3       1 DMP1        0.0000
     53 H2X        -7.6900   -6.6250   -0.8410 H         1 DMP1        0.0000
     54 H2Y        -7.8980   -7.7060    0.5860 H         1 DMP1        0.0000
     55 C23        -3.8140   -5.6440   -4.6660 C.3       1 DMP1        0.0000
     56 H3R        -3.4710   -6.7020   -4.6200 H         1 DMP1        0.0000
     57 H3S        -3.5630   -5.2520   -5.6790 H         1 DMP1        0.0000
     58 C24        -5.3350   -5.5800   -4.4770 C.3       1 DMP1        0.0000
     59 H4R        -5.6620   -4.5180   -4.5610 H         1 DMP1        0.0000
     60 H4S        -5.6020   -5.9280   -3.4540 H         1 DMP1        0.0000
     61 C25        -6.0970   -6.4300   -5.4990 C.3       1 DMP1        0.0000
     62 H5R        -5.7650   -7.4890   -5.4220 H         1 DMP1        0.0000
     63 H5S        -5.8500   -6.0670   -6.5220 H         1 DMP1        0.0000
     64 C26        -7.6120   -6.3530   -5.2830 C.3       1 DMP1        0.0000
     65 H6R        -7.9050   -5.2790   -5.2430 H         1 DMP1        0.0000
     66 H6S        -7.8670   -6.8070   -4.3010 H         1 DMP1        0.0000
     67 C27        -8.4160   -7.0370   -6.3960 C.3       1 DMP1        0.0000
     68 H7R        -8.1640   -8.1190   -6.4400 H         1 DMP1        0.0000
     69 H7S        -8.1240   -6.5790   -7.3680 H         1 DMP1        0.0000
     70 C28        -9.9280   -6.8560   -6.1980 C.3       1 DMP1        0.0000
     71 H8R       -10.1100   -5.8040   -5.8760 H         1 DMP1        0.0000
     72 H8S       -10.2790   -7.5220   -5.3790 H         1 DMP1        0.0000
     73 C29       -10.7530   -7.0980   -7.4700 C.3       1 DMP1        0.0000
     74 H9R       -10.3870   -6.4170   -8.2720 H         1 DMP1        0.0000
     75 H9S       -11.8130   -6.8280   -7.2610 H         1 DMP1        0.0000
     76 C210      -10.7130   -8.5430   -7.9850 C.3       1 DMP1        0.0000
     77 H10R      -11.0910   -9.2180   -7.1870 H         1 DMP1        0.0000
     78 H10S       -9.6620   -8.8350   -8.2080 H         1 DMP1        0.0000
     79 C211      -11.5590   -8.7140   -9.2560 C.3       1 DMP1        0.0000
     80 H11R      -11.1690   -8.0210  -10.0350 H         1 DMP1        0.0000
     81 H11S      -12.6090   -8.4150   -9.0380 H         1 DMP1        0.0000
     82 C212      -11.5560  -10.1430   -9.8210 C.3       1 DMP1        0.0000
     83 H12R      -10.5090  -10.4640  -10.0150 H         1 DMP1        0.0000
     84 H12S      -12.0910  -10.1350  -10.7980 H         1 DMP1        0.0000
     85 C213      -12.2440  -11.1610   -8.9020 C.3       1 DMP1        0.0000
     86 H13R      -13.2490  -10.7690   -8.6260 H         1 DMP1        0.0000
     87 H13S      -11.6540  -11.2610   -7.9630 H         1 DMP1        0.0000
     88 C214      -12.4060  -12.5410   -9.5420 C.3       1 DMP1        0.0000
     89 H14R      -11.4150  -12.9550   -9.8180 H         1 DMP1        0.0000
     90 H14S      -13.0260  -12.4730  -10.4620 H         1 DMP1        0.0000
     91 H14T      -12.8980  -13.2440   -8.8370 H         1 DMP1        0.0000
     92 C33        -6.5950   -8.5050   -0.9820 C.3       1 DMP1        0.0000
     93 H3X        -6.2030   -9.2940   -0.3020 H         1 DMP1        0.0000
     94 H3Y        -5.7390   -8.1380   -1.5970 H         1 DMP1        0.0000
     95 C34        -7.6360   -9.1100   -1.9340 C.3       1 DMP1        0.0000
     96 H4X        -8.0610   -8.2880   -2.5540 H         1 DMP1        0.0000
     97 H4Y        -8.4690   -9.5630   -1.3550 H         1 DMP1        0.0000
     98 C35        -7.0280  -10.1560   -2.8770 C.3       1 DMP1        0.0000
     99 H5X        -6.6930  -11.0440   -2.2960 H         1 DMP1        0.0000
    100 H5Y        -6.1240   -9.7060   -3.3500 H         1 DMP1        0.0000
    101 C36        -7.9890  -10.5920   -3.9930 C.3       1 DMP1        0.0000
    102 H6X        -8.4750   -9.6850   -4.4190 H         1 DMP1        0.0000
    103 H6Y        -8.7870  -11.2430   -3.5750 H         1 DMP1        0.0000
    104 C37        -7.2490  -11.3130   -5.1270 C.3       1 DMP1        0.0000
    105 H7X        -6.7570  -12.2310   -4.7340 H         1 DMP1        0.0000
    106 H7Y        -6.4460  -10.6330   -5.4940 H         1 DMP1        0.0000
    107 C38        -8.1420  -11.6880   -6.3190 C.3       1 DMP1        0.0000
    108 H8X        -8.8600  -10.8650   -6.5330 H         1 DMP1        0.0000
    109 H8Y        -8.7320  -12.5950   -6.0610 H         1 DMP1        0.0000
    110 C39        -7.2960  -11.9440   -7.5740 C.3       1 DMP1        0.0000
    111 H9X        -6.3890  -12.5180   -7.2750 H         1 DMP1        0.0000
    112 H9Y        -6.9530  -10.9670   -7.9810 H         1 DMP1        0.0000
    113 C310       -8.0110  -12.7380   -8.6750 C.3       1 DMP1        0.0000
    114 H10X       -8.9530  -12.2230   -8.9670 H         1 DMP1        0.0000
    115 H10Y       -8.2780  -13.7410   -8.2740 H         1 DMP1        0.0000
    116 C311       -7.1070  -12.9100   -9.9070 C.3       1 DMP1        0.0000
    117 H11X       -6.0810  -13.1690   -9.5590 H         1 DMP1        0.0000
    118 H11Y       -7.0420  -11.9370  -10.4420 H         1 DMP1        0.0000
    119 C312       -7.5600  -14.0050  -10.8850 C.3       1 DMP1        0.0000
    120 H12X       -7.4860  -14.9970  -10.3850 H         1 DMP1        0.0000
    121 H12Y       -6.8600  -14.0140  -11.7510 H         1 DMP1        0.0000
    122 C313       -8.9890  -13.8220  -11.4070 C.3       1 DMP1        0.0000
    123 H13X       -9.1180  -12.7720  -11.7540 H         1 DMP1        0.0000
    124 H13Y       -9.6970  -13.9910  -10.5660 H         1 DMP1        0.0000
    125 C314       -9.3380  -14.7760  -12.5530 C.3       1 DMP1        0.0000
    126 H14X       -9.2220  -15.8330  -12.2290 H         1 DMP1        0.0000
    127 H14Y       -8.6650  -14.6010  -13.4200 H         1 DMP1        0.0000
    128 H14Z      -10.3860  -14.6220  -12.8850 H         1 DMP1        0.0000
@<TRIPOS>BOND
     1  127  125 1 
     2  128  125 1 
     3  125  126 1 
     4  125  122 1 
     5  123  122 1 
     6  121  119 1 
     7  122  119 1 
     8  122  124 1 
     9  119  120 1 
    10  119  116 1 
    11   84   82 1 
    12   90   88 1 
    13  118  116 1 
    14   80   79 1 
    15   83   82 1 
    16  116  117 1 
    17  116  113 1 
    18   82   79 1 
    19   82   85 1 
    20   89   88 1 
    21   88   85 1 
    22   88   91 1 
    23   79   81 1 
    24   79   76 1 
    25  114  113 1 
    26   85   86 1 
    27   85   87 1 
    28  113  115 1 
    29  113  110 1 
    30   74   73 1 
    31   78   76 1 
    32   76   73 1 
    33   76   77 1 
    34  112  110 1 
    35  110  111 1 
    36  110  107 1 
    37   73   75 1 
    38   73   70 1 
    39   69   67 1 
    40  108  107 1 
    41   63   61 1 
    42   68   67 1 
    43   67   70 1 
    44   67   64 1 
    45  107  109 1 
    46  107  104 1 
    47   70   71 1 
    48   70   72 1 
    49   57   55 1 
    50   61   62 1 
    51   61   64 1 
    52   61   58 1 
    53  106  104 1 
    54   64   65 1 
    55   64   66 1 
    56  104  105 1 
    57  104  101 1 
    58   55   56 1 
    59   55   58 1 
    60   55   43 1 
    61   59   58 1 
    62   58   60 1 
    63  102  101 1 
    64  101  103 1 
    65  101   98 1 
    66   44   43 1 
    67   43   45 1 
    68   43   41 1 
    69  100   98 1 
    70   98   99 1 
    71   98   95 1 
    72   11    8 2 
    73   96   95 1 
    74   41   42 2 
    75   41   40 1 
    76   31   30 2 
    77   32   30 1 
    78   95   97 1 
    79   95   92 1 
    80   94   92 1 
    81   40   38 1 
    82   30   33 1 
    83   30   34 1 
    84    8    9 1 
    85    8   10 1 
    86    8    7 1 
    87    6    5 1 
    88   92   93 1 
    89   92   52 1 
    90   29   28 1 
    91   53   52 1 
    92    2    1 1 
    93   33   35 1 
    94    7    5 1 
    95    5    1 1 
    96    5   12 1 
    97   52   54 1 
    98   52   50 1 
    99   38   39 1 
   100   38   35 1 
   101   38   46 1 
   102   28    1 1 
   103   28   34 1 
   104   28   24 1 
   105   15   14 1 
   106    1    3 1 
   107   36   35 1 
   108   35   37 1 
   109   49   50 1 
   110   49   46 1 
   111   14   12 1 
   112   50   51 2 
   113   47   46 1 
   114   46   48 1 
   115   12   16 1 
   116   12   13 1 
   117   26   24 1 
   118   26   27 1 
   119   17   16 1 
   120   24   16 1 
   121   24   25 1 
   122    3    4 1 
   123   16   18 1 
   124   18   19 1 
   125   22   19 2 
   126   19   20 1 
   127   19   23 1 
   128   21   20 1 
