@<TRIPOS>MOLECULE
C:\Users\Praveer\PycharmProjects\pdb_to_mol2_converter\data\pdb\dmpi33.pdb
  131   131     0     0     0
SMALL
GASTEIGER

@<TRIPOS>ATOM
      1 C12         1.3700    0.0260    0.0900 C.3       1 DMP1        0.0000
      2 H2          1.7590   -0.5220   -0.8010 H         1 DMP1        0.0000
      3 O2          1.8600   -0.6270    1.2630 O.3       1 DMP1        0.0000
      4 HO2         1.5640   -0.0500    1.9860 H         1 DMP1        0.0000
      5 C13         1.8920    1.4540   -0.0130 C.3       1 DMP1        0.0000
      6 H3          1.3780    1.8510   -0.9250 H         1 DMP1        0.0000
      7 O3          3.2900    1.5510   -0.3160 O.3       1 DMP1        0.0000
      8 P3          4.6210    0.9780    0.4270 P.3       1 DMP1        0.0000
      9 OP32        4.3960   -0.5890    0.2080 O.3       1 DMP1        0.0000
     10 HP32        3.4870   -0.7610    0.5240 H         1 DMP1        0.0000
     11 OP33        5.8800    1.3510   -0.3520 O.2       1 DMP1        0.0000
     12 OP34        4.6420    1.2460    1.9250 O.3       1 DMP1        0.0000
     13 C14         1.3640    2.3410    1.1330 C.3       1 DMP1        0.0000
     14 H4          2.1690    2.2730    1.9060 H         1 DMP1        0.0000
     15 O4          1.2430    3.7430    0.8660 O.3       1 DMP1        0.0000
     16 P4          1.0320    4.7060   -0.4620 P.3       1 DMP1        0.0000
     17 OP42        0.4130    6.0010    0.0650 O.3       1 DMP1        0.0000
     18 OP43        0.0980    3.9900   -1.4380 O.2       1 DMP1        0.0000
     19 OP44        2.4080    4.9830   -1.0650 O.3       1 DMP1        0.0000
     20 C15         0.0650    1.8230    1.8710 C.3       1 DMP1        0.0000
     21 H5         -0.6650    2.6590    1.7120 H         1 DMP1        0.0000
     22 O5          0.2750    1.7340    3.2940 O.3       1 DMP1        0.0000
     23 P5         -0.9140    1.4480    4.4260 P.3       1 DMP1        0.0000
     24 OP52       -0.5870    2.3020    5.6520 O.3       1 DMP1        0.0000
     25 OP53       -2.2450    1.8260    3.7770 O.2       1 DMP1        0.0000
     26 OP54       -0.8460   -0.0430    4.7330 O.3       1 DMP1        0.0000
     27 C16        -0.6730    0.5720    1.3230 C.3       1 DMP1        0.0000
     28 H6         -0.4680   -0.2330    2.0780 H         1 DMP1        0.0000
     29 O6         -2.0910    0.7230    1.3830 O.3       1 DMP1        0.0000
     30 HO6        -2.2250    1.1290    2.2770 H         1 DMP1        0.0000
     31 C11        -0.1440   -0.0200    0.0250 C.3       1 DMP1        0.0000
     32 H1         -0.5150    0.6220   -0.8120 H         1 DMP1        0.0000
     33 P          -0.9280   -2.1400   -1.5010 P.3       1 DMP1        0.0000
     34 O13        -2.0300   -1.4830   -2.2440 O.3       1 DMP1        0.0000
     35 O14         0.2910   -2.4780   -2.2680 O.2       1 DMP1        0.0000
     36 O11        -1.5200   -3.4970   -0.9170 O.3       1 DMP1        0.0000
     37 O12        -0.5840   -1.3800   -0.0990 O.3       1 DMP1        0.0000
     38 C1         -2.5520   -3.4530    0.0800 C.3       1 DMP1        0.0000
     39 HA         -3.1100   -2.4830    0.0630 H         1 DMP1        0.0000
     40 HB         -2.1010   -3.5460    1.0930 H         1 DMP1        0.0000
     41 C2         -3.5950   -4.5850   -0.1490 C.3       1 DMP1        0.0000
     42 HS         -3.1290   -5.5440    0.1790 H         1 DMP1        0.0000
     43 O21        -3.9440   -4.6050   -1.5470 O.3       1 DMP1        0.0000
     44 C21        -3.1280   -5.3550   -2.2840 C.2       1 DMP1        0.0000
     45 O22        -2.5700   -6.3650   -1.9220 O.2       1 DMP1        0.0000
     46 C22        -3.0370   -4.7710   -3.6950 C.3       1 DMP1        0.0000
     47 H2R        -1.9560   -4.7450   -3.9520 H         1 DMP1        0.0000
     48 H2S        -3.4050   -3.7250   -3.6860 H         1 DMP1        0.0000
     49 C3         -4.8810   -4.3890    0.7100 C.3       1 DMP1        0.0000
     50 HX         -5.1690   -3.3190    0.6080 H         1 DMP1        0.0000
     51 HY         -4.6440   -4.5580    1.7840 H         1 DMP1        0.0000
     52 O31        -5.9950   -5.2010    0.2610 O.3       1 DMP1        0.0000
     53 C31        -5.8890   -6.5010    0.5030 C.2       1 DMP1        0.0000
     54 O32        -5.0370   -7.0300    1.1990 O.2       1 DMP1        0.0000
     55 C32        -7.0260   -7.2510   -0.2010 C.3       1 DMP1        0.0000
     56 H2X        -7.5420   -6.5490   -0.8880 H         1 DMP1        0.0000
     57 H2Y        -7.7520   -7.5880    0.5650 H         1 DMP1        0.0000
     58 C23        -3.8030   -5.6360   -4.7160 C.3       1 DMP1        0.0000
     59 H3R        -3.4440   -6.6890   -4.6680 H         1 DMP1        0.0000
     60 H3S        -3.5830   -5.2510   -5.7380 H         1 DMP1        0.0000
     61 C24        -5.3200   -5.5930   -4.4980 C.3       1 DMP1        0.0000
     62 H4R        -5.6630   -4.5360   -4.5750 H         1 DMP1        0.0000
     63 H4S        -5.5670   -5.9460   -3.4710 H         1 DMP1        0.0000
     64 C25        -6.0860   -6.4480   -5.5140 C.3       1 DMP1        0.0000
     65 H5R        -5.7600   -7.5080   -5.4340 H         1 DMP1        0.0000
     66 H5S        -5.8410   -6.0910   -6.5390 H         1 DMP1        0.0000
     67 C26        -7.6000   -6.3590   -5.2960 C.3       1 DMP1        0.0000
     68 H6R        -7.8850   -5.2830   -5.2550 H         1 DMP1        0.0000
     69 H6S        -7.8570   -6.8120   -4.3140 H         1 DMP1        0.0000
     70 C27        -8.4120   -7.0330   -6.4070 C.3       1 DMP1        0.0000
     71 H7R        -8.1660   -8.1170   -6.4590 H         1 DMP1        0.0000
     72 H7S        -8.1230   -6.5740   -7.3800 H         1 DMP1        0.0000
     73 C28        -9.9210   -6.8440   -6.1990 C.3       1 DMP1        0.0000
     74 H8R       -10.0940   -5.7950   -5.8630 H         1 DMP1        0.0000
     75 H8S       -10.2720   -7.5170   -5.3860 H         1 DMP1        0.0000
     76 C29       -10.7530   -7.0690   -7.4710 C.3       1 DMP1        0.0000
     77 H9R       -10.3840   -6.3820   -8.2660 H         1 DMP1        0.0000
     78 H9S       -11.8100   -6.7920   -7.2560 H         1 DMP1        0.0000
     79 C210      -10.7180   -8.5140   -7.9910 C.3       1 DMP1        0.0000
     80 H10R      -11.0990   -9.1870   -7.1920 H         1 DMP1        0.0000
     81 H10S       -9.6670   -8.8050   -8.2110 H         1 DMP1        0.0000
     82 C211      -11.5600   -8.6950   -9.2650 C.3       1 DMP1        0.0000
     83 H11R      -11.1750   -7.9970  -10.0420 H         1 DMP1        0.0000
     84 H11S      -12.6130   -8.4070   -9.0510 H         1 DMP1        0.0000
     85 C212      -11.5400  -10.1250   -9.8330 C.3       1 DMP1        0.0000
     86 H12R      -10.4880  -10.4370  -10.0170 H         1 DMP1        0.0000
     87 H12S      -12.0630  -10.1170  -10.8160 H         1 DMP1        0.0000
     88 C213      -12.2340  -11.1510   -8.9240 C.3       1 DMP1        0.0000
     89 H13R      -13.2380  -10.7530   -8.6510 H         1 DMP1        0.0000
     90 H13S      -11.6470  -11.2550   -7.9830 H         1 DMP1        0.0000
     91 C214      -12.4110  -12.5340   -9.5570 C.3       1 DMP1        0.0000
     92 H14R      -11.4270  -12.9690   -9.8270 H         1 DMP1        0.0000
     93 H14S      -13.0320  -12.4700  -10.4760 H         1 DMP1        0.0000
     94 H14T      -12.9130  -13.2240   -8.8440 H         1 DMP1        0.0000
     95 C33        -6.5160   -8.4610   -1.0140 C.3       1 DMP1        0.0000
     96 H3X        -6.1300   -9.2550   -0.3350 H         1 DMP1        0.0000
     97 H3Y        -5.6660   -8.1320   -1.6590 H         1 DMP1        0.0000
     98 C34        -7.6000   -9.0450   -1.9320 C.3       1 DMP1        0.0000
     99 H4X        -8.0320   -8.2120   -2.5310 H         1 DMP1        0.0000
    100 H4Y        -8.4230   -9.4890   -1.3310 H         1 DMP1        0.0000
    101 C35        -7.0240  -10.0910   -2.8940 C.3       1 DMP1        0.0000
    102 H5X        -6.6860  -10.9850   -2.3230 H         1 DMP1        0.0000
    103 H5Y        -6.1230   -9.6440   -3.3750 H         1 DMP1        0.0000
    104 C36        -7.9930  -10.5190   -4.0060 C.3       1 DMP1        0.0000
    105 H6X        -8.4720   -9.6120   -4.4390 H         1 DMP1        0.0000
    106 H6Y        -8.7950  -11.1640   -3.5870 H         1 DMP1        0.0000
    107 C37        -7.2520  -11.2510   -5.1330 C.3       1 DMP1        0.0000
    108 H7X        -6.7490  -12.1550   -4.7220 H         1 DMP1        0.0000
    109 H7Y        -6.4520  -10.5730   -5.5100 H         1 DMP1        0.0000
    110 C38        -8.1410  -11.6590   -6.3170 C.3       1 DMP1        0.0000
    111 H8X        -8.8580  -10.8400   -6.5530 H         1 DMP1        0.0000
    112 H8Y        -8.7290  -12.5590   -6.0320 H         1 DMP1        0.0000
    113 C39        -7.2930  -11.9530   -7.5620 C.3       1 DMP1        0.0000
    114 H9X        -6.4000  -12.5420   -7.2510 H         1 DMP1        0.0000
    115 H9Y        -6.9250  -10.9890   -7.9810 H         1 DMP1        0.0000
    116 C310       -8.0150  -12.7420   -8.6640 C.3       1 DMP1        0.0000
    117 H10X       -8.9570  -12.2250   -8.9520 H         1 DMP1        0.0000
    118 H10Y       -8.2840  -13.7470   -8.2680 H         1 DMP1        0.0000
    119 C311       -7.1140  -12.8980   -9.8990 C.3       1 DMP1        0.0000
    120 H11X       -6.0860  -13.1560   -9.5550 H         1 DMP1        0.0000
    121 H11Y       -7.0530  -11.9130  -10.4140 H         1 DMP1        0.0000
    122 C312       -7.5550  -13.9730  -10.9080 C.3       1 DMP1        0.0000
    123 H12X       -7.4640  -14.9780  -10.4390 H         1 DMP1        0.0000
    124 H12Y       -6.8530  -13.9440  -11.7710 H         1 DMP1        0.0000
    125 C313       -8.9840  -13.7940  -11.4360 C.3       1 DMP1        0.0000
    126 H13X       -9.1060  -12.7460  -11.7930 H         1 DMP1        0.0000
    127 H13Y       -9.6950  -13.9510  -10.5950 H         1 DMP1        0.0000
    128 C314       -9.3420  -14.7540  -12.5750 C.3       1 DMP1        0.0000
    129 H14X       -9.2340  -15.8100  -12.2470 H         1 DMP1        0.0000
    130 H14Y       -8.6750  -14.5880  -13.4480 H         1 DMP1        0.0000
    131 H14Z      -10.3920  -14.5940  -12.9020 H         1 DMP1        0.0000
@<TRIPOS>BOND
     1  130  128 1 
     2  131  128 1 
     3  128  129 1 
     4  128  125 1 
     5  126  125 1 
     6  124  122 1 
     7  125  122 1 
     8  125  127 1 
     9  122  123 1 
    10  122  119 1 
    11   87   85 1 
    12   93   91 1 
    13  121  119 1 
    14   83   82 1 
    15   86   85 1 
    16  119  120 1 
    17  119  116 1 
    18   85   82 1 
    19   85   88 1 
    20   92   91 1 
    21   91   88 1 
    22   91   94 1 
    23   82   84 1 
    24   82   79 1 
    25  117  116 1 
    26   88   89 1 
    27   88   90 1 
    28  116  118 1 
    29  116  113 1 
    30   77   76 1 
    31   81   79 1 
    32   79   76 1 
    33   79   80 1 
    34  115  113 1 
    35  113  114 1 
    36  113  110 1 
    37   76   78 1 
    38   76   73 1 
    39   72   70 1 
    40  111  110 1 
    41   66   64 1 
    42   71   70 1 
    43   70   73 1 
    44   70   67 1 
    45  110  112 1 
    46  110  107 1 
    47   73   74 1 
    48   73   75 1 
    49   60   58 1 
    50   64   65 1 
    51   64   67 1 
    52   64   61 1 
    53  109  107 1 
    54   67   68 1 
    55   67   69 1 
    56  107  108 1 
    57  107  104 1 
    58   58   59 1 
    59   58   61 1 
    60   58   46 1 
    61   62   61 1 
    62   61   63 1 
    63  105  104 1 
    64  104  106 1 
    65  104  101 1 
    66   47   46 1 
    67   46   48 1 
    68   46   44 1 
    69  103  101 1 
    70  101  102 1 
    71  101   98 1 
    72   99   98 1 
    73   44   45 2 
    74   44   43 1 
    75   35   33 2 
    76   34   33 1 
    77   98  100 1 
    78   98   95 1 
    79   97   95 1 
    80   43   41 1 
    81   33   36 1 
    82   33   37 1 
    83   18   16 2 
    84   19   16 1 
    85   95   96 1 
    86   95   55 1 
    87    6    5 1 
    88   36   38 1 
    89   56   55 1 
    90   32   31 1 
    91    2    1 1 
    92   16   17 1 
    93   16   15 1 
    94   11    8 2 
    95    7    5 1 
    96    7    8 1 
    97   55   53 1 
    98   55   57 1 
    99   41   38 1 
   100   41   42 1 
   101   41   49 1 
   102   37   31 1 
   103    5    1 1 
   104    5   13 1 
   105   31    1 1 
   106   31   27 1 
   107   39   38 1 
   108   38   40 1 
   109    1    3 1 
   110    9    8 1 
   111    9   10 1 
   112   52   53 1 
   113   52   49 1 
   114    8   12 1 
   115   53   54 2 
   116   50   49 1 
   117   49   51 1 
   118   15   13 1 
   119   13   20 1 
   120   13   14 1 
   121    3    4 1 
   122   27   29 1 
   123   27   20 1 
   124   27   28 1 
   125   29   30 1 
   126   21   20 1 
   127   20   22 1 
   128   22   23 1 
   129   25   23 2 
   130   23   26 1 
   131   23   24 1 
