@<TRIPOS>MOLECULE
C:\Users\Praveer\PycharmProjects\pdb_to_mol2_converter\data\pdb\dmpi34.pdb
  131   131     0     0     0
SMALL
GASTEIGER

@<TRIPOS>ATOM
      1 C12         1.5070   -0.0430    0.0470 C.3       1 DMP1        0.0000
      2 H2          1.8850   -0.5370   -0.8820 H         1 DMP1        0.0000
      3 O2          1.8850   -0.8670    1.1490 O.3       1 DMP1        0.0000
      4 HO2         2.8420   -1.0170    0.9500 H         1 DMP1        0.0000
      5 C13         2.2080    1.3140    0.2040 C.3       1 DMP1        0.0000
      6 H3          2.0030    1.8280   -0.7660 H         1 DMP1        0.0000
      7 O3          3.6410    1.2350    0.3460 O.3       1 DMP1        0.0000
      8 P3          4.6690    0.1780   -0.4030 P.3       1 DMP1        0.0000
      9 OP32        4.3630    0.2320   -1.8940 O.2       1 DMP1        0.0000
     10 OP33        6.0800    0.6580   -0.0780 O.3       1 DMP1        0.0000
     11 OP34        4.3670   -1.1820    0.2260 O.3       1 DMP1        0.0000
     12 C14         1.6030    2.2180    1.3210 C.3       1 DMP1        0.0000
     13 H4          2.0470    1.7560    2.2430 H         1 DMP1        0.0000
     14 O4          1.9850    3.5980    1.3680 O.3       1 DMP1        0.0000
     15 P4          2.6920    4.5660    0.2670 P.3       1 DMP1        0.0000
     16 OP42        4.1890    4.0230    0.3200 O.3       1 DMP1        0.0000
     17 HP42        4.1550    3.0480    0.2870 H         1 DMP1        0.0000
     18 OP43        2.7270    6.0100    0.7740 O.3       1 DMP1        0.0000
     19 OP44        2.1120    4.3760   -1.1270 O.2       1 DMP1        0.0000
     20 C15         0.0700    2.1150    1.6060 C.3       1 DMP1        0.0000
     21 H5         -0.3370    3.0290    1.0970 H         1 DMP1        0.0000
     22 O5         -0.2410    2.2510    3.0140 O.3       1 DMP1        0.0000
     23 P5         -1.7190    2.6640    3.6740 P.3       1 DMP1        0.0000
     24 OP52       -1.5480    2.6090    5.1890 O.3       1 DMP1        0.0000
     25 OP53       -2.7100    1.6060    3.1740 O.2       1 DMP1        0.0000
     26 OP54       -2.0930    4.0600    3.1890 O.3       1 DMP1        0.0000
     27 C16        -0.6860    0.9430    0.9420 C.3       1 DMP1        0.0000
     28 H6         -0.8030    0.2170    1.7920 H         1 DMP1        0.0000
     29 O6         -2.0240    1.3120    0.6240 O.3       1 DMP1        0.0000
     30 HO6        -2.3980    1.4870    1.5230 H         1 DMP1        0.0000
     31 C11        -0.0140    0.0540   -0.1160 C.3       1 DMP1        0.0000
     32 H1         -0.1560    0.5940   -1.0890 H         1 DMP1        0.0000
     33 P          -1.2990   -1.9470   -1.4910 P.3       1 DMP1        0.0000
     34 O13        -2.6930   -1.4960   -1.6910 O.3       1 DMP1        0.0000
     35 O14        -0.4030   -1.8830   -2.6730 O.2       1 DMP1        0.0000
     36 O11        -1.3600   -3.4760   -1.0560 O.3       1 DMP1        0.0000
     37 O12        -0.6230   -1.2570   -0.1700 O.3       1 DMP1        0.0000
     38 C1         -2.4890   -4.0620   -0.4030 C.3       1 DMP1        0.0000
     39 HA         -3.1460   -3.3080    0.0910 H         1 DMP1        0.0000
     40 HB         -2.1000   -4.7190    0.4070 H         1 DMP1        0.0000
     41 C2         -3.3300   -4.9610   -1.3730 C.3       1 DMP1        0.0000
     42 HS         -3.7830   -5.7920   -0.7850 H         1 DMP1        0.0000
     43 O21        -2.5100   -5.4950   -2.4240 O.3       1 DMP1        0.0000
     44 C21        -1.4900   -6.2090   -1.9830 C.2       1 DMP1        0.0000
     45 O22        -1.4760   -6.8840   -0.9700 O.2       1 DMP1        0.0000
     46 C22        -0.3220   -6.0730   -2.9560 C.3       1 DMP1        0.0000
     47 H2R         0.5850   -6.3710   -2.3900 H         1 DMP1        0.0000
     48 H2S        -0.2210   -5.0010   -3.2340 H         1 DMP1        0.0000
     49 C3         -4.4990   -4.1700   -2.0260 C.3       1 DMP1        0.0000
     50 HX         -4.0450   -3.2930   -2.5380 H         1 DMP1        0.0000
     51 HY         -5.1730   -3.7760   -1.2330 H         1 DMP1        0.0000
     52 O31        -5.2210   -4.9340   -3.0190 O.3       1 DMP1        0.0000
     53 C31        -6.0420   -5.8590   -2.5580 C.2       1 DMP1        0.0000
     54 O32        -6.2780   -6.1000   -1.3910 O.2       1 DMP1        0.0000
     55 C32        -6.7000   -6.5630   -3.7480 C.3       1 DMP1        0.0000
     56 H2X        -6.7740   -5.8240   -4.5740 H         1 DMP1        0.0000
     57 H2Y        -7.7250   -6.8540   -3.4420 H         1 DMP1        0.0000
     58 C23        -0.4800   -6.9490   -4.2160 C.3       1 DMP1        0.0000
     59 H3R        -0.7110   -8.0020   -3.9390 H         1 DMP1        0.0000
     60 H3S         0.4980   -6.9460   -4.7510 H         1 DMP1        0.0000
     61 C24        -1.5470   -6.4100   -5.1770 C.3       1 DMP1        0.0000
     62 H4R        -1.3170   -5.3480   -5.4200 H         1 DMP1        0.0000
     63 H4S        -2.5420   -6.4250   -4.6790 H         1 DMP1        0.0000
     64 C25        -1.6320   -7.2280   -6.4670 C.3       1 DMP1        0.0000
     65 H5R        -1.8260   -8.2910   -6.2000 H         1 DMP1        0.0000
     66 H5S        -0.6530   -7.1790   -6.9940 H         1 DMP1        0.0000
     67 C26        -2.7420   -6.7400   -7.4040 C.3       1 DMP1        0.0000
     68 H6R        -2.5530   -5.6800   -7.6860 H         1 DMP1        0.0000
     69 H6S        -3.7120   -6.7730   -6.8570 H         1 DMP1        0.0000
     70 C27        -2.8390   -7.6080   -8.6640 C.3       1 DMP1        0.0000
     71 H7R        -3.0020   -8.6650   -8.3520 H         1 DMP1        0.0000
     72 H7S        -1.8770   -7.5650   -9.2230 H         1 DMP1        0.0000
     73 C28        -3.9830   -7.1880   -9.5900 C.3       1 DMP1        0.0000
     74 H8R        -3.7640   -6.1830  -10.0140 H         1 DMP1        0.0000
     75 H8S        -4.9160   -7.1050   -8.9870 H         1 DMP1        0.0000
     76 C29        -4.2100   -8.1990  -10.7220 C.3       1 DMP1        0.0000
     77 H9R        -4.4090   -9.2000  -10.2720 H         1 DMP1        0.0000
     78 H9S        -3.2840   -8.2850  -11.3350 H         1 DMP1        0.0000
     79 C210       -5.3890   -7.8140  -11.6240 C.3       1 DMP1        0.0000
     80 H10R       -5.1710   -6.8400  -12.1180 H         1 DMP1        0.0000
     81 H10S       -6.2940   -7.6780  -10.9870 H         1 DMP1        0.0000
     82 C211       -5.6890   -8.8840  -12.6850 C.3       1 DMP1        0.0000
     83 H11R       -5.9090   -9.8400  -12.1560 H         1 DMP1        0.0000
     84 H11S       -4.7930   -9.0560  -13.3220 H         1 DMP1        0.0000
     85 C212       -6.8870   -8.5300  -13.5770 C.3       1 DMP1        0.0000
     86 H12R       -6.5380   -7.9240  -14.4430 H         1 DMP1        0.0000
     87 H12S       -7.6000   -7.9020  -12.9940 H         1 DMP1        0.0000
     88 C213       -7.6420   -9.7740  -14.0670 C.3       1 DMP1        0.0000
     89 H13R       -8.0590  -10.3040  -13.1800 H         1 DMP1        0.0000
     90 H13S       -6.9290  -10.4690  -14.5670 H         1 DMP1        0.0000
     91 C214       -8.7860   -9.4490  -15.0300 C.3       1 DMP1        0.0000
     92 H14R       -8.3870   -9.0170  -15.9730 H         1 DMP1        0.0000
     93 H14S       -9.4820   -8.7150  -14.5710 H         1 DMP1        0.0000
     94 H14T       -9.3570  -10.3700  -15.2770 H         1 DMP1        0.0000
     95 C33        -5.9060   -7.8000   -4.2280 C.3       1 DMP1        0.0000
     96 H3X        -5.9260   -8.6000   -3.4540 H         1 DMP1        0.0000
     97 H3Y        -4.8390   -7.5150   -4.3920 H         1 DMP1        0.0000
     98 C34        -6.4490   -8.3520   -5.5560 C.3       1 DMP1        0.0000
     99 H4X        -6.4700   -7.5130   -6.2890 H         1 DMP1        0.0000
    100 H4Y        -7.4910   -8.7140   -5.4230 H         1 DMP1        0.0000
    101 C35        -5.5800   -9.4780   -6.1370 C.3       1 DMP1        0.0000
    102 H5X        -5.6380  -10.3820   -5.4940 H         1 DMP1        0.0000
    103 H5Y        -4.5230   -9.1210   -6.1250 H         1 DMP1        0.0000
    104 C36        -5.9260   -9.8360   -7.5920 C.3       1 DMP1        0.0000
    105 H6X        -5.0480  -10.3560   -8.0400 H         1 DMP1        0.0000
    106 H6Y        -6.0860   -8.8990   -8.1690 H         1 DMP1        0.0000
    107 C37        -7.1460  -10.7550   -7.7620 C.3       1 DMP1        0.0000
    108 H7X        -8.0390  -10.3010   -7.2800 H         1 DMP1        0.0000
    109 H7Y        -6.9400  -11.7260   -7.2560 H         1 DMP1        0.0000
    110 C38        -7.4410  -11.0190   -9.2470 C.3       1 DMP1        0.0000
    111 H8X        -6.5060  -11.3690   -9.7410 H         1 DMP1        0.0000
    112 H8Y        -7.7470  -10.0680   -9.7380 H         1 DMP1        0.0000
    113 C39        -8.5240  -12.0770   -9.4850 C.3       1 DMP1        0.0000
    114 H9X        -9.4590  -11.7870   -8.9570 H         1 DMP1        0.0000
    115 H9Y        -8.1740  -13.0440   -9.0590 H         1 DMP1        0.0000
    116 C310       -8.8180  -12.2590  -10.9800 C.3       1 DMP1        0.0000
    117 H10X       -7.8510  -12.3840  -11.5200 H         1 DMP1        0.0000
    118 H10Y       -9.3050  -11.3370  -11.3680 H         1 DMP1        0.0000
    119 C311       -9.7000  -13.4820  -11.2690 C.3       1 DMP1        0.0000
    120 H11X      -10.6920  -13.3550  -10.7830 H         1 DMP1        0.0000
    121 H11Y       -9.2100  -14.3730  -10.8140 H         1 DMP1        0.0000
    122 C312       -9.8940  -13.7520  -12.7700 C.3       1 DMP1        0.0000
    123 H12X      -10.3420  -14.7650  -12.8930 H         1 DMP1        0.0000
    124 H12Y       -8.9000  -13.7600  -13.2720 H         1 DMP1        0.0000
    125 C313      -10.8110  -12.7380  -13.4660 C.3       1 DMP1        0.0000
    126 H13X      -10.4080  -11.7120  -13.3120 H         1 DMP1        0.0000
    127 H13Y      -11.8140  -12.7780  -12.9800 H         1 DMP1        0.0000
    128 C314      -10.9650  -12.9990  -14.9680 C.3       1 DMP1        0.0000
    129 H14X      -11.3440  -14.0280  -15.1500 H         1 DMP1        0.0000
    130 H14Y       -9.9870  -12.8920  -15.4860 H         1 DMP1        0.0000
    131 H14Z      -11.6810  -12.2780  -15.4170 H         1 DMP1        0.0000
@<TRIPOS>BOND
     1   92   91 1 
     2  130  128 1 
     3  131  128 1 
     4   94   91 1 
     5  129  128 1 
     6   91   93 1 
     7   91   88 1 
     8  128  125 1 
     9   90   88 1 
    10   86   85 1 
    11   88   85 1 
    12   88   89 1 
    13   85   87 1 
    14   85   82 1 
    15  125  126 1 
    16  125  127 1 
    17  125  122 1 
    18   84   82 1 
    19  124  122 1 
    20  123  122 1 
    21  122  119 1 
    22   82   83 1 
    23   82   79 1 
    24   80   79 1 
    25   79   81 1 
    26   79   76 1 
    27  117  116 1 
    28  118  116 1 
    29   78   76 1 
    30  119  116 1 
    31  119  121 1 
    32  119  120 1 
    33  116  113 1 
    34   76   77 1 
    35   76   73 1 
    36   74   73 1 
    37  111  110 1 
    38  112  110 1 
    39   73   75 1 
    40   73   70 1 
    41  113  110 1 
    42  113  115 1 
    43  113  114 1 
    44  110  107 1 
    45   72   70 1 
    46   70   71 1 
    47   70   67 1 
    48  106  104 1 
    49  105  104 1 
    50  107  104 1 
    51  107  108 1 
    52  107  109 1 
    53   68   67 1 
    54  104  101 1 
    55   67   69 1 
    56   67   64 1 
    57   66   64 1 
    58   64   65 1 
    59   64   61 1 
    60   99   98 1 
    61  101  103 1 
    62  101   98 1 
    63  101  102 1 
    64   98  100 1 
    65   98   95 1 
    66   62   61 1 
    67   61   63 1 
    68   61   58 1 
    69   60   58 1 
    70   56   55 1 
    71   97   95 1 
    72   95   55 1 
    73   95   96 1 
    74   58   59 1 
    75   58   46 1 
    76   55   57 1 
    77   55   53 1 
    78   48   46 1 
    79   52   53 1 
    80   52   49 1 
    81   46   47 1 
    82   46   44 1 
    83   35   33 2 
    84   53   54 2 
    85   50   49 1 
    86   43   44 1 
    87   43   41 1 
    88   49   41 1 
    89   49   51 1 
    90   44   45 2 
    91    9    8 2 
    92   34   33 1 
    93   33   36 1 
    94   33   37 1 
    95   41   42 1 
    96   41   38 1 
    97   19   15 2 
    98   32   31 1 
    99   36   38 1 
   100    2    1 1 
   101    6    5 1 
   102   38   39 1 
   103   38   40 1 
   104    8   10 1 
   105    8   11 1 
   106    8    7 1 
   107   37   31 1 
   108   31    1 1 
   109   31   27 1 
   110    1    5 1 
   111    1    3 1 
   112    5    7 1 
   113    5   12 1 
   114   15   16 1 
   115   15   18 1 
   116   15   14 1 
   117   17   16 1 
   118   29   27 1 
   119   29   30 1 
   120   27   20 1 
   121   27   28 1 
   122    4    3 1 
   123   21   20 1 
   124   12   14 1 
   125   12   20 1 
   126   12   13 1 
   127   20   22 1 
   128   22   23 1 
   129   25   23 2 
   130   26   23 1 
   131   23   24 1 
