@<TRIPOS>MOLECULE
C:\Users\Praveer\PycharmProjects\pdb_to_mol2_converter\data\pdb\dmpi2c.pdb
  128   128     0     0     0
SMALL
GASTEIGER

@<TRIPOS>ATOM
      1 C12         1.6150   -0.0650    0.1050 C.3       1 DMP1        0.0000
      2 H2          2.0150   -0.7060   -0.7190 H         1 DMP1        0.0000
      3 O2          2.0650   -0.6260    1.3400 O.3       1 DMP1        0.0000
      4 HO2         2.7530   -0.0310    1.7100 H         1 DMP1        0.0000
      5 C13         2.1370    1.3470   -0.1440 C.3       1 DMP1        0.0000
      6 H3          1.6640    1.6610   -1.1120 H         1 DMP1        0.0000
      7 O3          3.5440    1.4390   -0.3930 O.3       1 DMP1        0.0000
      8 P3          4.7700    0.8190    0.4740 P.3       1 DMP1        0.0000
      9 OP32        4.7340   -0.6280   -0.1990 O.3       1 DMP1        0.0000
     10 HP32        3.8390   -0.9730   -0.0830 H         1 DMP1        0.0000
     11 OP33        6.0980    1.4890    0.1580 O.2       1 DMP1        0.0000
     12 OP34        4.3580    0.6330    1.9290 O.3       1 DMP1        0.0000
     13 C14         1.5680    2.3570    0.8650 C.3       1 DMP1        0.0000
     14 H4          2.1750    2.1910    1.7880 H         1 DMP1        0.0000
     15 O4          1.8670    3.6910    0.4420 O.3       1 DMP1        0.0000
     16 P4          0.8840    4.9960    0.2480 P.3       1 DMP1        0.0000
     17 OP42        0.1240    5.1260    1.5690 O.3       1 DMP1        0.0000
     18 OP43       -0.0210    4.6570   -0.9320 O.2       1 DMP1        0.0000
     19 OP44        1.7990    6.1850   -0.0250 O.3       1 DMP1        0.0000
     20 C15         0.1050    2.0790    1.3110 C.3       1 DMP1        0.0000
     21 H5         -0.5160    2.6400    0.5670 H         1 DMP1        0.0000
     22 O5         -0.1700    2.7100    2.5570 O.3       1 DMP1        0.0000
     23 HO5        -0.0890    3.6720    2.3110 H         1 DMP1        0.0000
     24 C16        -0.5080    0.6650    1.1440 C.3       1 DMP1        0.0000
     25 H6         -0.2760    0.1130    2.0820 H         1 DMP1        0.0000
     26 O6         -1.9360    0.6610    1.0220 O.3       1 DMP1        0.0000
     27 HO6        -2.1390    0.2830    0.1530 H         1 DMP1        0.0000
     28 C11         0.1120   -0.0900   -0.0130 C.3       1 DMP1        0.0000
     29 H1         -0.1560    0.4690   -0.9510 H         1 DMP1        0.0000
     30 P          -1.2300   -2.0010   -1.2810 P.3       1 DMP1        0.0000
     31 O13        -2.4040   -1.1030   -1.3820 O.3       1 DMP1        0.0000
     32 O14        -0.4180   -2.2160   -2.4960 O.2       1 DMP1        0.0000
     33 O11        -1.6910   -3.4090   -0.7250 O.3       1 DMP1        0.0000
     34 O12        -0.2970   -1.4700   -0.0470 O.3       1 DMP1        0.0000
     35 C1         -2.6880   -3.5250    0.2900 C.3       1 DMP1        0.0000
     36 HA         -3.2730   -2.5800    0.4110 H         1 DMP1        0.0000
     37 HB         -2.2020   -3.7470    1.2650 H         1 DMP1        0.0000
     38 C2         -3.7140   -4.6420   -0.0610 C.3       1 DMP1        0.0000
     39 HS         -3.2670   -5.6210    0.2330 H         1 DMP1        0.0000
     40 O21        -4.0060   -4.5810   -1.4730 O.3       1 DMP1        0.0000
     41 C21        -3.1970   -5.3280   -2.2180 C.2       1 DMP1        0.0000
     42 O22        -2.6390   -6.3500   -1.8590 O.2       1 DMP1        0.0000
     43 C22        -3.0840   -4.7330   -3.6220 C.3       1 DMP1        0.0000
     44 H2R        -1.9980   -4.6540   -3.8440 H         1 DMP1        0.0000
     45 H2S        -3.5030   -3.7060   -3.6220 H         1 DMP1        0.0000
     46 C3         -5.0290   -4.4790    0.7550 C.3       1 DMP1        0.0000
     47 HX         -5.3370   -3.4150    0.6490 H         1 DMP1        0.0000
     48 HY         -4.8270   -4.6590    1.8340 H         1 DMP1        0.0000
     49 O31        -6.1050   -5.3050    0.2610 O.3       1 DMP1        0.0000
     50 C31        -5.9960   -6.5980    0.5320 C.2       1 DMP1        0.0000
     51 O32        -5.1780   -7.1010    1.2860 O.2       1 DMP1        0.0000
     52 C32        -7.0850   -7.3600   -0.2230 C.3       1 DMP1        0.0000
     53 H2X        -7.5710   -6.6630   -0.9400 H         1 DMP1        0.0000
     54 H2Y        -7.8430   -7.6970    0.5120 H         1 DMP1        0.0000
     55 C23        -3.7830   -5.6240   -4.6700 C.3       1 DMP1        0.0000
     56 H3R        -3.4310   -6.6760   -4.5760 H         1 DMP1        0.0000
     57 H3S        -3.5040   -5.2650   -5.6870 H         1 DMP1        0.0000
     58 C24        -5.3080   -5.5610   -4.5320 C.3       1 DMP1        0.0000
     59 H4R        -5.6330   -4.5050   -4.6790 H         1 DMP1        0.0000
     60 H4S        -5.6000   -5.8580   -3.4980 H         1 DMP1        0.0000
     61 C25        -6.0560   -6.4560   -5.5260 C.3       1 DMP1        0.0000
     62 H5R        -5.7430   -7.5160   -5.3910 H         1 DMP1        0.0000
     63 H5S        -5.7940   -6.1490   -6.5630 H         1 DMP1        0.0000
     64 C26        -7.5710   -6.3410   -5.3250 C.3       1 DMP1        0.0000
     65 H6R        -7.8420   -5.2590   -5.3370 H         1 DMP1        0.0000
     66 H6S        -7.8390   -6.7420   -4.3220 H         1 DMP1        0.0000
     67 C27        -8.3940   -7.0540   -6.4020 C.3       1 DMP1        0.0000
     68 H7R        -8.1560   -8.1400   -6.4130 H         1 DMP1        0.0000
     69 H7S        -8.1090   -6.6340   -7.3940 H         1 DMP1        0.0000
     70 C28        -9.9000   -6.8460   -6.1890 C.3       1 DMP1        0.0000
     71 H8R       -10.0630   -5.7900   -5.8680 H         1 DMP1        0.0000
     72 H8S       -10.2560   -7.5030   -5.3650 H         1 DMP1        0.0000
     73 C29       -10.7380   -7.0740   -7.4540 C.3       1 DMP1        0.0000
     74 H9R       -10.3620   -6.4030   -8.2590 H         1 DMP1        0.0000
     75 H9S       -11.7920   -6.7840   -7.2420 H         1 DMP1        0.0000
     76 C210      -10.7250   -8.5220   -7.9620 C.3       1 DMP1        0.0000
     77 H10R      -11.1340   -9.1840   -7.1680 H         1 DMP1        0.0000
     78 H10S       -9.6800   -8.8410   -8.1680 H         1 DMP1        0.0000
     79 C211      -11.5540   -8.6710   -9.2470 C.3       1 DMP1        0.0000
     80 H11R      -11.1420   -7.9730  -10.0110 H         1 DMP1        0.0000
     81 H11S      -12.6030   -8.3600   -9.0410 H         1 DMP1        0.0000
     82 C212      -11.5580  -10.0910   -9.8320 C.3       1 DMP1        0.0000
     83 H12R      -10.5130  -10.4080  -10.0430 H         1 DMP1        0.0000
     84 H12S      -12.1050  -10.0660  -10.8030 H         1 DMP1        0.0000
     85 C213      -12.2330  -11.1280   -8.9250 C.3       1 DMP1        0.0000
     86 H13R      -13.2430  -10.7530   -8.6420 H         1 DMP1        0.0000
     87 H13S      -11.6400  -11.2370   -7.9890 H         1 DMP1        0.0000
     88 C214      -12.3780  -12.5000   -9.5880 C.3       1 DMP1        0.0000
     89 H14R      -11.3820  -12.8950   -9.8720 H         1 DMP1        0.0000
     90 H14S      -12.9990  -12.4250  -10.5070 H         1 DMP1        0.0000
     91 H14T      -12.8600  -13.2230   -8.8950 H         1 DMP1        0.0000
     92 C33        -6.5300   -8.5690   -1.0060 C.3       1 DMP1        0.0000
     93 H3X        -6.1330   -9.3420   -0.3090 H         1 DMP1        0.0000
     94 H3Y        -5.6830   -8.2280   -1.6480 H         1 DMP1        0.0000
     95 C34        -7.6040   -9.1820   -1.9150 C.3       1 DMP1        0.0000
     96 H4X        -8.0440   -8.3600   -2.5250 H         1 DMP1        0.0000
     97 H4Y        -8.4220   -9.6240   -1.3040 H         1 DMP1        0.0000
     98 C35        -7.0390  -10.2360   -2.8730 C.3       1 DMP1        0.0000
     99 H5X        -6.7490  -11.1500   -2.3100 H         1 DMP1        0.0000
    100 H5Y        -6.1150   -9.8180   -3.3350 H         1 DMP1        0.0000
    101 C36        -8.0130  -10.5980   -4.0040 C.3       1 DMP1        0.0000
    102 H6X        -8.4170   -9.6560   -4.4400 H         1 DMP1        0.0000
    103 H6Y        -8.8680  -11.1840   -3.6030 H         1 DMP1        0.0000
    104 C37        -7.3100  -11.3730   -5.1240 C.3       1 DMP1        0.0000
    105 H7X        -6.9180  -12.3390   -4.7320 H         1 DMP1        0.0000
    106 H7Y        -6.4340  -10.7670   -5.4540 H         1 DMP1        0.0000
    107 C38        -8.1910  -11.6440   -6.3520 C.3       1 DMP1        0.0000
    108 H8X        -8.8580  -10.7740   -6.5470 H         1 DMP1        0.0000
    109 H8Y        -8.8370  -12.5260   -6.1450 H         1 DMP1        0.0000
    110 C39        -7.3300  -11.8940   -7.5980 C.3       1 DMP1        0.0000
    111 H9X        -6.3940  -12.4110   -7.2840 H         1 DMP1        0.0000
    112 H9Y        -7.0380  -10.9130   -8.0370 H         1 DMP1        0.0000
    113 C310       -8.0010  -12.7630   -8.6700 C.3       1 DMP1        0.0000
    114 H10X       -8.9780  -12.3190   -8.9620 H         1 DMP1        0.0000
    115 H10Y       -8.1970  -13.7710   -8.2400 H         1 DMP1        0.0000
    116 C311       -7.1040  -12.9050   -9.9090 C.3       1 DMP1        0.0000
    117 H11X       -6.0690  -13.1440   -9.5740 H         1 DMP1        0.0000
    118 H11Y       -7.0650  -11.9230  -10.4330 H         1 DMP1        0.0000
    119 C312       -7.5500  -13.9910  -10.9000 C.3       1 DMP1        0.0000
    120 H12X       -7.4650  -14.9890  -10.4140 H         1 DMP1        0.0000
    121 H12Y       -6.8500  -13.9800  -11.7660 H         1 DMP1        0.0000
    122 C313       -8.9810  -13.8090  -11.4200 C.3       1 DMP1        0.0000
    123 H13X       -9.1130  -12.7510  -11.7440 H         1 DMP1        0.0000
    124 H13Y       -9.6900  -13.9980  -10.5830 H         1 DMP1        0.0000
    125 C314       -9.3270  -14.7380  -12.5860 C.3       1 DMP1        0.0000
    126 H14X       -9.2120  -15.8010  -12.2860 H         1 DMP1        0.0000
    127 H14Y       -8.6540  -14.5420  -13.4490 H         1 DMP1        0.0000
    128 H14Z      -10.3760  -14.5760  -12.9160 H         1 DMP1        0.0000
@<TRIPOS>BOND
     1  127  125 1 
     2  128  125 1 
     3  125  126 1 
     4  125  122 1 
     5  121  119 1 
     6  123  122 1 
     7  122  119 1 
     8  122  124 1 
     9  119  120 1 
    10  119  116 1 
    11   84   82 1 
    12   90   88 1 
    13  118  116 1 
    14   83   82 1 
    15   80   79 1 
    16  116  117 1 
    17  116  113 1 
    18   89   88 1 
    19   82   79 1 
    20   82   85 1 
    21   88   85 1 
    22   88   91 1 
    23   79   81 1 
    24   79   76 1 
    25  114  113 1 
    26   85   86 1 
    27   85   87 1 
    28  113  115 1 
    29  113  110 1 
    30   74   73 1 
    31   78   76 1 
    32  112  110 1 
    33   76   73 1 
    34   76   77 1 
    35  110  111 1 
    36  110  107 1 
    37   73   75 1 
    38   73   70 1 
    39   69   67 1 
    40   63   61 1 
    41  108  107 1 
    42   68   67 1 
    43   67   70 1 
    44   67   64 1 
    45  107  109 1 
    46  107  104 1 
    47   70   71 1 
    48   70   72 1 
    49   57   55 1 
    50   61   62 1 
    51   61   64 1 
    52   61   58 1 
    53  106  104 1 
    54   65   64 1 
    55   64   66 1 
    56  104  105 1 
    57  104  101 1 
    58   59   58 1 
    59   55   56 1 
    60   55   58 1 
    61   55   43 1 
    62   58   60 1 
    63  102  101 1 
    64  101  103 1 
    65  101   98 1 
    66   44   43 1 
    67   45   43 1 
    68   43   41 1 
    69  100   98 1 
    70   98   99 1 
    71   98   95 1 
    72   96   95 1 
    73   32   30 2 
    74   41   42 2 
    75   41   40 1 
    76   95   97 1 
    77   95   92 1 
    78   94   92 1 
    79   40   38 1 
    80   31   30 1 
    81   30   33 1 
    82   30   34 1 
    83    6    5 1 
    84   92   93 1 
    85   92   52 1 
    86   29   28 1 
    87   53   52 1 
    88   18   16 2 
    89   33   35 1 
    90    2    1 1 
    91    7    5 1 
    92    7    8 1 
    93   52   54 1 
    94   52   50 1 
    95    9   10 1 
    96    9    8 1 
    97    5    1 1 
    98    5   13 1 
    99   38   39 1 
   100   38   35 1 
   101   38   46 1 
   102   34   28 1 
   103   19   16 1 
   104   28    1 1 
   105   28   24 1 
   106    1    3 1 
   107   27   26 1 
   108   11    8 2 
   109   16   15 1 
   110   16   17 1 
   111   49   50 1 
   112   49   46 1 
   113   35   36 1 
   114   35   37 1 
   115   15   13 1 
   116    8   12 1 
   117   50   51 2 
   118   21   20 1 
   119   47   46 1 
   120   46   48 1 
   121   13   20 1 
   122   13   14 1 
   123   26   24 1 
   124   24   20 1 
   125   24   25 1 
   126   20   22 1 
   127    3    4 1 
   128   23   22 1 
