@<TRIPOS>MOLECULE
C:\Users\Praveer\PycharmProjects\pdb_to_mol2_converter\data\pdb\dmpi25.pdb
  128   128     0     0     0
SMALL
GASTEIGER

@<TRIPOS>ATOM
      1 C12         1.3930   -0.1150    0.1030 C.3       1 DMP1        0.0000
      2 H2          1.8020   -0.6640   -0.7790 H         1 DMP1        0.0000
      3 O2          1.8510   -0.8020    1.2690 O.3       1 DMP1        0.0000
      4 HO2         2.6150   -0.2690    1.5350 H         1 DMP1        0.0000
      5 C13         1.9910    1.2810    0.0950 C.3       1 DMP1        0.0000
      6 H3          1.6870    1.7770   -0.8560 H         1 DMP1        0.0000
      7 O3          3.4170    1.2010    0.0960 O.3       1 DMP1        0.0000
      8 HO3         3.7670    2.0520    0.4830 H         1 DMP1        0.0000
      9 C14         1.4700    2.1480    1.2400 C.3       1 DMP1        0.0000
     10 H4          1.8360    1.7220    2.2070 H         1 DMP1        0.0000
     11 O4          1.8910    3.5140    1.0900 O.3       1 DMP1        0.0000
     12 P4          3.2770    4.0940    1.7980 P.3       1 DMP1        0.0000
     13 OP42        4.4080    3.3430    1.1040 O.2       1 DMP1        0.0000
     14 OP43        3.2930    5.5870    1.4980 O.3       1 DMP1        0.0000
     15 OP44        3.1900    3.7740    3.2830 O.3       1 DMP1        0.0000
     16 C15        -0.0690    2.1200    1.3020 C.3       1 DMP1        0.0000
     17 H5         -0.3760    2.7040    0.3900 H         1 DMP1        0.0000
     18 O5         -0.5170    2.7230    2.5310 O.3       1 DMP1        0.0000
     19 P5         -1.6170    3.9370    2.4370 P.3       1 DMP1        0.0000
     20 OP52       -0.7010    5.0670    1.8000 O.3       1 DMP1        0.0000
     21 HP52        0.2270    4.7730    1.8490 H         1 DMP1        0.0000
     22 OP53       -2.0850    4.3380    3.8260 O.3       1 DMP1        0.0000
     23 OP54       -2.6910    3.5170    1.4350 O.2       1 DMP1        0.0000
     24 C16        -0.7430    0.7520    1.0980 C.3       1 DMP1        0.0000
     25 H6         -0.5860    0.1760    2.0420 H         1 DMP1        0.0000
     26 O6         -2.1530    0.9150    0.9140 O.3       1 DMP1        0.0000
     27 HO6        -2.3720    1.8500    1.1160 H         1 DMP1        0.0000
     28 C11        -0.1240   -0.0700   -0.0290 C.3       1 DMP1        0.0000
     29 H1         -0.3660    0.4930   -0.9700 H         1 DMP1        0.0000
     30 P          -0.9160   -2.1390   -1.5360 P.3       1 DMP1        0.0000
     31 O13        -2.1850   -1.6840   -2.1440 O.3       1 DMP1        0.0000
     32 O14         0.3040   -2.0260   -2.3690 O.2       1 DMP1        0.0000
     33 O11        -1.0860   -3.6630   -1.1110 O.3       1 DMP1        0.0000
     34 O12        -0.6760   -1.3990   -0.0800 O.3       1 DMP1        0.0000
     35 C1         -1.9100   -4.0280    0.0000 C.3       1 DMP1        0.0000
     36 HA         -2.5880   -3.2010    0.3270 H         1 DMP1        0.0000
     37 HB         -1.2550   -4.2940    0.8580 H         1 DMP1        0.0000
     38 C2         -2.8010   -5.2430   -0.3650 C.3       1 DMP1        0.0000
     39 HS         -2.1160   -6.0350   -0.7530 H         1 DMP1        0.0000
     40 O21        -3.7600   -4.8010   -1.3430 O.3       1 DMP1        0.0000
     41 C21        -3.9450   -5.6020   -2.3670 C.2       1 DMP1        0.0000
     42 O22        -3.5140   -6.7400   -2.4850 O.2       1 DMP1        0.0000
     43 C22        -4.8030   -4.8720   -3.4020 C.3       1 DMP1        0.0000
     44 H2R        -4.2410   -3.9490   -3.6720 H         1 DMP1        0.0000
     45 H2S        -5.7540   -4.5680   -2.9250 H         1 DMP1        0.0000
     46 C3         -3.5470   -5.8010    0.8800 C.3       1 DMP1        0.0000
     47 HX         -4.1180   -4.9520    1.3170 H         1 DMP1        0.0000
     48 HY         -2.8020   -6.1190    1.6450 H         1 DMP1        0.0000
     49 O31        -4.4810   -6.8540    0.5440 O.3       1 DMP1        0.0000
     50 C31        -3.9440   -8.0650    0.4220 C.2       1 DMP1        0.0000
     51 O32        -2.7930   -8.3600    0.6950 O.2       1 DMP1        0.0000
     52 C32        -5.0130   -9.0570   -0.0470 C.3       1 DMP1        0.0000
     53 H2X        -5.9680   -8.5160   -0.2040 H         1 DMP1        0.0000
     54 H2Y        -5.1530   -9.8000    0.7650 H         1 DMP1        0.0000
     55 C23        -5.0620   -5.7040   -4.6800 C.3       1 DMP1        0.0000
     56 H3R        -4.1220   -6.1980   -5.0150 H         1 DMP1        0.0000
     57 H3S        -5.3690   -5.0000   -5.4890 H         1 DMP1        0.0000
     58 C24        -6.1750   -6.7530   -4.5290 C.3       1 DMP1        0.0000
     59 H4R        -7.1130   -6.2480   -4.2060 H         1 DMP1        0.0000
     60 H4S        -5.8910   -7.4850   -3.7410 H         1 DMP1        0.0000
     61 C25        -6.4340   -7.5020   -5.8460 C.3       1 DMP1        0.0000
     62 H5R        -5.5010   -8.0330   -6.1400 H         1 DMP1        0.0000
     63 H5S        -6.6630   -6.7610   -6.6450 H         1 DMP1        0.0000
     64 C26        -7.5840   -8.5170   -5.7670 C.3       1 DMP1        0.0000
     65 H6R        -8.5310   -7.9850   -5.5260 H         1 DMP1        0.0000
     66 H6S        -7.3790   -9.2360   -4.9420 H         1 DMP1        0.0000
     67 C27        -7.7560   -9.2970   -7.0800 C.3       1 DMP1        0.0000
     68 H7R        -6.7990   -9.8190   -7.3080 H         1 DMP1        0.0000
     69 H7S        -7.9580   -8.5840   -7.9110 H         1 DMP1        0.0000
     70 C28        -8.8840  -10.3370   -7.0270 C.3       1 DMP1        0.0000
     71 H8R        -9.8610   -9.8250   -6.8810 H         1 DMP1        0.0000
     72 H8S        -8.7180  -10.9940   -6.1460 H         1 DMP1        0.0000
     73 C29        -8.9450  -11.1990   -8.2970 C.3       1 DMP1        0.0000
     74 H9R        -7.9410  -11.6420   -8.4880 H         1 DMP1        0.0000
     75 H9S        -9.1940  -10.5450   -9.1630 H         1 DMP1        0.0000
     76 C210       -9.9770  -12.3320   -8.2050 C.3       1 DMP1        0.0000
     77 H10R      -10.9600  -11.9010   -7.9130 H         1 DMP1        0.0000
     78 H10S       -9.6680  -13.0410   -7.4060 H         1 DMP1        0.0000
     79 C211      -10.1330  -13.1010   -9.5260 C.3       1 DMP1        0.0000
     80 H11R       -9.1240  -13.3840   -9.9030 H         1 DMP1        0.0000
     81 H11S      -10.5920  -12.4210  -10.2780 H         1 DMP1        0.0000
     82 C212      -10.9860  -14.3760   -9.4130 C.3       1 DMP1        0.0000
     83 H12R      -10.4300  -15.1370   -8.8200 H         1 DMP1        0.0000
     84 H12S      -11.1360  -14.7920  -10.4360 H         1 DMP1        0.0000
     85 C213      -12.3590  -14.1550   -8.7620 C.3       1 DMP1        0.0000
     86 H13R      -12.8670  -13.3060   -9.2740 H         1 DMP1        0.0000
     87 H13S      -12.2110  -13.8630   -7.6970 H         1 DMP1        0.0000
     88 C214      -13.2640  -15.3880   -8.8140 C.3       1 DMP1        0.0000
     89 H14R      -12.7700  -16.2570   -8.3270 H         1 DMP1        0.0000
     90 H14S      -13.4920  -15.6590   -9.8670 H         1 DMP1        0.0000
     91 H14T      -14.2230  -15.1900   -8.2890 H         1 DMP1        0.0000
     92 C33        -4.5980   -9.7770   -1.3500 C.3       1 DMP1        0.0000
     93 H3X        -3.6170  -10.2860   -1.2100 H         1 DMP1        0.0000
     94 H3Y        -4.4650   -9.0200   -2.1570 H         1 DMP1        0.0000
     95 C34        -5.6330  -10.8090   -1.8240 C.3       1 DMP1        0.0000
     96 H4X        -6.6320  -10.3210   -1.8770 H         1 DMP1        0.0000
     97 H4Y        -5.6970  -11.6390   -1.0870 H         1 DMP1        0.0000
     98 C35        -5.2840  -11.3700   -3.2110 C.3       1 DMP1        0.0000
     99 H5X        -4.2870  -11.8620   -3.1690 H         1 DMP1        0.0000
    100 H5Y        -5.2050  -10.5140   -3.9220 H         1 DMP1        0.0000
    101 C36        -6.3190  -12.3640   -3.7580 C.3       1 DMP1        0.0000
    102 H6X        -7.3210  -11.8800   -3.7360 H         1 DMP1        0.0000
    103 H6Y        -6.3620  -13.2630   -3.1060 H         1 DMP1        0.0000
    104 C37        -6.0050  -12.7770   -5.2040 C.3       1 DMP1        0.0000
    105 H7X        -5.0650  -13.3720   -5.2350 H         1 DMP1        0.0000
    106 H7Y        -5.8320  -11.8430   -5.7890 H         1 DMP1        0.0000
    107 C38        -7.1390  -13.5490   -5.8940 C.3       1 DMP1        0.0000
    108 H8X        -6.9380  -13.5710   -6.9900 H         1 DMP1        0.0000
    109 H8Y        -8.0930  -12.9990   -5.7420 H         1 DMP1        0.0000
    110 C39        -7.3330  -14.9940   -5.4130 C.3       1 DMP1        0.0000
    111 H9X        -7.5810  -14.9930   -4.3290 H         1 DMP1        0.0000
    112 H9Y        -6.3870  -15.5630   -5.5490 H         1 DMP1        0.0000
    113 C310       -8.4620  -15.6880   -6.1910 C.3       1 DMP1        0.0000
    114 H10X       -8.2110  -15.6840   -7.2750 H         1 DMP1        0.0000
    115 H10Y       -9.3990  -15.1010   -6.0630 H         1 DMP1        0.0000
    116 C311       -8.7240  -17.1330   -5.7460 C.3       1 DMP1        0.0000
    117 H11X       -8.9470  -17.1410   -4.6560 H         1 DMP1        0.0000
    118 H11Y       -7.8050  -17.7390   -5.9110 H         1 DMP1        0.0000
    119 C312       -9.8940  -17.7660   -6.5170 C.3       1 DMP1        0.0000
    120 H12X       -9.6780  -17.6920   -7.6070 H         1 DMP1        0.0000
    121 H12Y      -10.8190  -17.1800   -6.3180 H         1 DMP1        0.0000
    122 C313      -10.1490  -19.2410   -6.1680 C.3       1 DMP1        0.0000
    123 H13X       -9.2190  -19.8210   -6.3640 H         1 DMP1        0.0000
    124 H13Y      -10.9330  -19.6320   -6.8580 H         1 DMP1        0.0000
    125 C314      -10.6010  -19.4830   -4.7250 C.3       1 DMP1        0.0000
    126 H14X      -11.5250  -18.9070   -4.5040 H         1 DMP1        0.0000
    127 H14Y       -9.8120  -19.1710   -4.0080 H         1 DMP1        0.0000
    128 H14Z      -10.8120  -20.5620   -4.5590 H         1 DMP1        0.0000
@<TRIPOS>BOND
     1   84   82 1 
     2   81   79 1 
     3   80   79 1 
     4   90   88 1 
     5   79   82 1 
     6   79   76 1 
     7   82   83 1 
     8   82   85 1 
     9   86   85 1 
    10   75   73 1 
    11   88   85 1 
    12   88   89 1 
    13   88   91 1 
    14   85   87 1 
    15   74   73 1 
    16   73   76 1 
    17   73   70 1 
    18   76   77 1 
    19   76   78 1 
    20   69   67 1 
    21  120  119 1 
    22   68   67 1 
    23  114  113 1 
    24   67   70 1 
    25   67   64 1 
    26   70   71 1 
    27   70   72 1 
    28  108  107 1 
    29  124  122 1 
    30   63   61 1 
    31  119  121 1 
    32  119  122 1 
    33  119  116 1 
    34  123  122 1 
    35  113  115 1 
    36  113  116 1 
    37  113  110 1 
    38  122  125 1 
    39   62   61 1 
    40  118  116 1 
    41  107  109 1 
    42  107  110 1 
    43  107  104 1 
    44   61   64 1 
    45   61   58 1 
    46  106  104 1 
    47   64   65 1 
    48   64   66 1 
    49  116  117 1 
    50  112  110 1 
    51   57   55 1 
    52  110  111 1 
    53  105  104 1 
    54  104  101 1 
    55   56   55 1 
    56  125  128 1 
    57  125  126 1 
    58  125  127 1 
    59   55   58 1 
    60   55   43 1 
    61   58   59 1 
    62   58   60 1 
    63  100   98 1 
    64  101  102 1 
    65  101   98 1 
    66  101  103 1 
    67   44   43 1 
    68   43   45 1 
    69   43   41 1 
    70   98   99 1 
    71   98   95 1 
    72   42   41 2 
    73   32   30 2 
    74   41   40 1 
    75   94   92 1 
    76   31   30 1 
    77   96   95 1 
    78   95   92 1 
    79   95   97 1 
    80   30   33 1 
    81   30   34 1 
    82   92   93 1 
    83   92   52 1 
    84   40   38 1 
    85   33   35 1 
    86   29   28 1 
    87    6    5 1 
    88    2    1 1 
    89   39   38 1 
    90   38   35 1 
    91   38   46 1 
    92   53   52 1 
    93   34   28 1 
    94   52   50 1 
    95   52   54 1 
    96   28    1 1 
    97   28   24 1 
    98   35   36 1 
    99   35   37 1 
   100    5    7 1 
   101    5    1 1 
   102    5    9 1 
   103    7    8 1 
   104    1    3 1 
   105   17   16 1 
   106   50   49 1 
   107   50   51 2 
   108   49   46 1 
   109   46   47 1 
   110   46   48 1 
   111   26   24 1 
   112   26   27 1 
   113   11    9 1 
   114   11   12 1 
   115   24   16 1 
   116   24   25 1 
   117   13   12 2 
   118    9   16 1 
   119    9   10 1 
   120    3    4 1 
   121   16   18 1 
   122   23   19 2 
   123   14   12 1 
   124   12   15 1 
   125   20   21 1 
   126   20   19 1 
   127   19   18 1 
   128   19   22 1 
