@<TRIPOS>MOLECULE
C:\Users\Praveer\PycharmProjects\pdb_to_mol2_converter\data\pdb\dmpr.pdb
   18    17     0     0     0
SMALL
GASTEIGER

@<TRIPOS>ATOM
      1 C           1.3430    0.0570   -0.0830 C.2       1 DMP1        0.0000
      2 O           2.0210   -0.9660   -0.1460 O.2       1 DMP1        0.0000
      3 N          -0.0240    0.0310   -0.0100 N.am      1 DMP1        0.0000
      4 C1          2.0290    1.3980   -0.0830 C.3       1 DMP1        0.0000
      5 H11         1.6900    1.9800    0.8010 H         1 DMP1        0.0000
      6 H12         1.7460    1.9420   -1.0100 H         1 DMP1        0.0000
      7 C2         -0.8490    1.2220    0.0730 C.3       1 DMP1        0.0000
      8 H21        -0.4340    2.0270   -0.5720 H         1 DMP1        0.0000
      9 H22        -0.8850    1.5300    1.1410 H         1 DMP1        0.0000
     10 H23        -1.8640    0.9470   -0.2860 H         1 DMP1        0.0000
     11 C3         -0.7220   -1.2410    0.0580 C.3       1 DMP1        0.0000
     12 H31        -1.4410   -1.1790    0.9020 H         1 DMP1        0.0000
     13 H32        -0.0140   -2.0850    0.2240 H         1 DMP1        0.0000
     14 H33        -1.2540   -1.3690   -0.9090 H         1 DMP1        0.0000
     15 C4          3.5620    1.2470   -0.0350 C.3       1 DMP1        0.0000
     16 H41         3.9250    0.6730   -0.9160 H         1 DMP1        0.0000
     17 H42         3.8720    0.7020    0.8840 H         1 DMP1        0.0000
     18 H43         4.0540    2.2410   -0.0370 H         1 DMP1        0.0000
@<TRIPOS>BOND
     1    6    4 1 
     2   16   15 1 
     3   14   11 1 
     4    8    7 1 
     5   10    7 1 
     6    2    1 2 
     7    1    4 1 
     8    1    3 am
     9    4   15 1 
    10    4    5 1 
    11   18   15 1 
    12   15   17 1 
    13    3   11 1 
    14    3    7 1 
    15   11   13 1 
    16   11   12 1 
    17    7    9 1 
