@<TRIPOS>MOLECULE
C:\Users\Praveer\PycharmProjects\pdb_to_mol2_converter\data\pdb\dmps.pdb
  111   110     0     0     0
SMALL
GASTEIGER

@<TRIPOS>ATOM
      1 N          -0.0170    0.0060   -0.0010 N.4       1 DMP1        0.0000
      2 HN1        -0.3820   -0.5490   -0.8080 H         1 DMP1        0.0000
      3 HN2        -0.3480    1.0070   -0.0890 H         1 DMP1        0.0000
      4 HN3        -0.2800   -0.4130    0.9230 H         1 DMP1        0.0000
      5 C12         1.4690    0.0020    0.0370 C.3       1 DMP1        0.0000
      6 H12A        1.8400   -0.5350   -0.8230 H         1 DMP1        0.0000
      7 C13         1.9370   -0.7510    1.2970 C.2       1 DMP1        0.0000
      8 O13A        3.1690   -0.9090    1.4640 O.co2     1 DMP1        0.0000
      9 O13B        1.0550   -1.1950    2.0900 O.co2     1 DMP1        0.0000
     10 C11         2.0020    1.4670    0.0220 C.3       1 DMP1        0.0000
     11 H11A        3.1130    1.4180    0.1110 H         1 DMP1        0.0000
     12 H11B        1.6430    2.0190    0.9240 H         1 DMP1        0.0000
     13 P           0.4470    3.1250   -1.3270 P.3       1 DMP1        0.0000
     14 O13         0.8540    4.4950   -0.9610 O.2       1 DMP1        0.0000
     15 O14        -0.6710    2.5000   -0.5830 O.3       1 DMP1        0.0000
     16 O12         1.6760    2.1330   -1.2040 O.3       1 DMP1        0.0000
     17 O11         0.1150    3.0340   -2.8730 O.3       1 DMP1        0.0000
     18 C1         -0.0580    1.7640   -3.5070 C.3       1 DMP1        0.0000
     19 HA          0.5620    0.9640   -3.0420 H         1 DMP1        0.0000
     20 HB          0.2840    1.8500   -4.5630 H         1 DMP1        0.0000
     21 C2         -1.5560    1.3610   -3.5310 C.3       1 DMP1        0.0000
     22 HS         -1.9390    1.3110   -2.4840 H         1 DMP1        0.0000
     23 O21        -1.7190    0.0960   -4.1990 O.3       1 DMP1        0.0000
     24 C21        -1.3520   -0.9620   -3.5020 C.2       1 DMP1        0.0000
     25 O22        -0.9880   -0.9650   -2.3390 O.2       1 DMP1        0.0000
     26 C22        -1.4720   -2.2060   -4.3810 C.3       1 DMP1        0.0000
     27 H2R        -1.3440   -1.9000   -5.4410 H         1 DMP1        0.0000
     28 H2S        -2.4950   -2.6160   -4.2580 H         1 DMP1        0.0000
     29 C3         -2.3960    2.4490   -4.2580 C.3       1 DMP1        0.0000
     30 HX         -1.9300    2.6610   -5.2480 H         1 DMP1        0.0000
     31 HY         -2.3080    3.3850   -3.6610 H         1 DMP1        0.0000
     32 O31        -3.7930    2.0860   -4.3520 O.3       1 DMP1        0.0000
     33 C31        -4.1580    1.4930   -5.4820 C.2       1 DMP1        0.0000
     34 O32        -3.4420    1.2790   -6.4470 O.2       1 DMP1        0.0000
     35 C32        -5.6380    1.1300   -5.3990 C.3       1 DMP1        0.0000
     36 H2X        -6.2240    2.0610   -5.5400 H         1 DMP1        0.0000
     37 H2Y        -5.8470    0.7280   -4.3860 H         1 DMP1        0.0000
     38 C23        -0.4130   -3.2730   -4.0190 C.3       1 DMP1        0.0000
     39 H3R        -0.5760   -3.6590   -2.9880 H         1 DMP1        0.0000
     40 H3S         0.5970   -2.8000   -4.0450 H         1 DMP1        0.0000
     41 C24        -0.4050   -4.4430   -5.0140 C.3       1 DMP1        0.0000
     42 H4R         0.5470   -5.0110   -4.9150 H         1 DMP1        0.0000
     43 H4S        -0.4250   -4.0210   -6.0440 H         1 DMP1        0.0000
     44 C25        -1.5770   -5.4250   -4.8340 C.3       1 DMP1        0.0000
     45 H5R        -2.3860   -4.9580   -4.2290 H         1 DMP1        0.0000
     46 H5S        -1.2100   -6.3090   -4.2650 H         1 DMP1        0.0000
     47 C26        -2.1720   -5.8810   -6.1750 C.3       1 DMP1        0.0000
     48 H6R        -2.7200   -6.8400   -6.0410 H         1 DMP1        0.0000
     49 H6S        -1.3390   -6.0660   -6.8890 H         1 DMP1        0.0000
     50 C27        -3.1410   -4.8420   -6.7580 C.3       1 DMP1        0.0000
     51 H7R        -2.7430   -3.8260   -6.5440 H         1 DMP1        0.0000
     52 H7S        -4.1230   -4.9290   -6.2430 H         1 DMP1        0.0000
     53 C28        -3.3340   -4.9730   -8.2760 C.3       1 DMP1        0.0000
     54 H8R        -3.5830   -6.0290   -8.5250 H         1 DMP1        0.0000
     55 H8S        -2.3700   -4.7310   -8.7770 H         1 DMP1        0.0000
     56 C29        -4.4390   -4.0600   -8.8410 C.3       1 DMP1        0.0000
     57 H9R        -5.4250   -4.4630   -8.5150 H         1 DMP1        0.0000
     58 H9S        -4.4130   -4.1100   -9.9520 H         1 DMP1        0.0000
     59 C210       -4.3580   -2.5880   -8.3930 C.3       1 DMP1        0.0000
     60 H10R       -4.4850   -2.5490   -7.2890 H         1 DMP1        0.0000
     61 H10S       -5.2130   -2.0280   -8.8300 H         1 DMP1        0.0000
     62 C211       -3.0520   -1.8610   -8.7560 C.3       1 DMP1        0.0000
     63 H11R       -2.2000   -2.3890   -8.2750 H         1 DMP1        0.0000
     64 H11S       -3.0840   -0.8350   -8.3210 H         1 DMP1        0.0000
     65 C212       -2.7630   -1.7410  -10.2640 C.3       1 DMP1        0.0000
     66 H12R       -2.7210   -2.7460  -10.7370 H         1 DMP1        0.0000
     67 H12S       -1.7460   -1.2920  -10.3590 H         1 DMP1        0.0000
     68 C213       -3.7440   -0.8360  -11.0300 C.3       1 DMP1        0.0000
     69 H13R       -3.1640   -0.2860  -11.8070 H         1 DMP1        0.0000
     70 H13S       -4.1580   -0.0730  -10.3330 H         1 DMP1        0.0000
     71 C214       -4.8840   -1.5780  -11.7380 C.3       1 DMP1        0.0000
     72 H14R       -5.5230   -2.1150  -11.0070 H         1 DMP1        0.0000
     73 H14S       -4.4750   -2.3210  -12.4550 H         1 DMP1        0.0000
     74 H14T       -5.5230   -0.8630  -12.3000 H         1 DMP1        0.0000
     75 C33        -6.0330    0.0920   -6.4710 C.3       1 DMP1        0.0000
     76 H3X        -5.4510   -0.8420   -6.3100 H         1 DMP1        0.0000
     77 H3Y        -5.7790    0.4770   -7.4860 H         1 DMP1        0.0000
     78 C34        -7.5280   -0.2460   -6.4360 C.3       1 DMP1        0.0000
     79 H4X        -8.1050    0.6930   -6.5770 H         1 DMP1        0.0000
     80 H4Y        -7.7910   -0.6540   -5.4340 H         1 DMP1        0.0000
     81 C35        -7.9250   -1.2680   -7.5140 C.3       1 DMP1        0.0000
     82 H5X        -7.3250   -2.1930   -7.3540 H         1 DMP1        0.0000
     83 H5Y        -7.6570   -0.8700   -8.5170 H         1 DMP1        0.0000
     84 C36        -9.4170   -1.6450   -7.4820 C.3       1 DMP1        0.0000
     85 H6X        -9.6660   -1.9760   -6.4490 H         1 DMP1        0.0000
     86 H6Y        -9.5940   -2.5120   -8.1570 H         1 DMP1        0.0000
     87 C37       -10.3760   -0.5070   -7.8750 C.3       1 DMP1        0.0000
     88 H7X       -10.1430    0.3990   -7.2760 H         1 DMP1        0.0000
     89 H7Y       -11.4170   -0.8110   -7.6190 H         1 DMP1        0.0000
     90 C38       -10.3520   -0.1540   -9.3730 C.3       1 DMP1        0.0000
     91 H8X       -10.8170   -0.9990   -9.9290 H         1 DMP1        0.0000
     92 H8Y        -9.3110   -0.0510   -9.7450 H         1 DMP1        0.0000
     93 C39       -11.1280    1.1380   -9.6830 C.3       1 DMP1        0.0000
     94 H9X       -11.9020    1.2910   -8.9010 H         1 DMP1        0.0000
     95 H9Y       -11.6550    1.0090  -10.6580 H         1 DMP1        0.0000
     96 C310      -10.2550    2.4020   -9.8110 C.3       1 DMP1        0.0000
     97 H10X      -10.9180    3.2950   -9.8200 H         1 DMP1        0.0000
     98 H10Y       -9.7620    2.3680  -10.8060 H         1 DMP1        0.0000
     99 C311       -9.1820    2.5830   -8.7200 C.3       1 DMP1        0.0000
    100 H11X       -8.6550    1.6230   -8.5290 H         1 DMP1        0.0000
    101 H11Y       -9.6980    2.8750   -7.7780 H         1 DMP1        0.0000
    102 C312       -8.1180    3.6400   -9.0720 C.3       1 DMP1        0.0000
    103 H12X       -7.7700    4.1170   -8.1240 H         1 DMP1        0.0000
    104 H12Y       -8.5690    4.4420   -9.6980 H         1 DMP1        0.0000
    105 C313       -6.8700    3.0540   -9.7660 C.3       1 DMP1        0.0000
    106 H13X       -6.3520    2.3810   -9.0440 H         1 DMP1        0.0000
    107 H13Y       -6.1680    3.8890   -9.9940 H         1 DMP1        0.0000
    108 C314       -7.1300    2.2660  -11.0560 C.3       1 DMP1        0.0000
    109 H14X       -7.6360    2.9090  -11.8070 H         1 DMP1        0.0000
    110 H14Y       -7.7840    1.3900  -10.8570 H         1 DMP1        0.0000
    111 H14Z       -6.1790    1.8910  -11.4910 H         1 DMP1        0.0000
@<TRIPOS>BOND
     1   73   71 1 
     2   74   71 1 
     3   69   68 1 
     4  109  108 1 
     5   71   68 1 
     6   71   72 1 
     7  111  108 1 
     8  108  110 1 
     9  108  105 1 
    10   68   70 1 
    11   68   65 1 
    12   98   96 1 
    13   66   65 1 
    14   95   93 1 
    15   67   65 1 
    16   65   62 1 
    17  107  105 1 
    18   58   56 1 
    19   91   90 1 
    20   97   96 1 
    21   96   93 1 
    22   96   99 1 
    23  105  102 1 
    24  105  106 1 
    25   92   90 1 
    26  104  102 1 
    27   93   90 1 
    28   93   94 1 
    29   90   87 1 
    30  102   99 1 
    31  102  103 1 
    32   56   57 1 
    33   56   59 1 
    34   56   53 1 
    35   61   59 1 
    36   55   53 1 
    37   62   59 1 
    38   62   64 1 
    39   62   63 1 
    40   99  100 1 
    41   99  101 1 
    42   54   53 1 
    43   83   81 1 
    44   59   60 1 
    45   53   50 1 
    46   86   84 1 
    47   87   89 1 
    48   87   84 1 
    49   87   88 1 
    50   81   84 1 
    51   81   82 1 
    52   81   78 1 
    53   77   75 1 
    54   84   85 1 
    55   49   47 1 
    56   50   51 1 
    57   50   52 1 
    58   50   47 1 
    59   79   78 1 
    60   75   78 1 
    61   75   76 1 
    62   75   35 1 
    63   34   33 2 
    64   78   80 1 
    65   47   48 1 
    66   47   44 1 
    67   43   41 1 
    68   36   35 1 
    69   33   35 1 
    70   33   32 1 
    71   27   26 1 
    72   35   37 1 
    73   30   29 1 
    74   41   42 1 
    75   41   44 1 
    76   41   38 1 
    77   44   46 1 
    78   44   45 1 
    79   20   18 1 
    80   26   28 1 
    81   26   38 1 
    82   26   24 1 
    83   32   29 1 
    84   29   31 1 
    85   29   21 1 
    86   23   21 1 
    87   23   24 1 
    88   40   38 1 
    89   38   39 1 
    90   21   18 1 
    91   21   22 1 
    92   18   19 1 
    93   18   17 1 
    94   24   25 2 
    95   17   13 1 
    96   13   16 1 
    97   13   14 2 
    98   13   15 1 
    99   16   10 1 
   100    6    5 1 
   101    2    1 1 
   102    3    1 1 
   103    1    5 1 
   104    1    4 1 
   105   10    5 1 
   106   10   11 1 
   107   10   12 1 
   108    5    7 1 
   109    7    8 ar
   110    7    9 ar
