@<TRIPOS>MOLECULE
C:\Users\Praveer\PycharmProjects\pdb_to_mol2_converter\data\pdb\dmpu.pdb
   24    24     0     0     0
SMALL
GASTEIGER

@<TRIPOS>ATOM
      1 C1          1.4050   -0.0010   -0.0050 C.ar      1 DMP1        0.0000
      2 H1          1.9470   -0.9310    0.0370 H         1 DMP1        0.0000
      3 C2          2.1310    1.1990   -0.0060 C.ar      1 DMP1        0.0000
      4 H2          3.2110    1.1780    0.0080 H         1 DMP1        0.0000
      5 C3          1.4540    2.4230   -0.0200 C.ar      1 DMP1        0.0000
      6 H3          2.0110    3.3500   -0.0220 H         1 DMP1        0.0000
      7 C4          0.0560    2.4470   -0.0310 C.ar      1 DMP1        0.0000
      8 H4         -0.4720    3.3900   -0.0450 H         1 DMP1        0.0000
      9 C5         -0.6620    1.2430   -0.0240 C.ar      1 DMP1        0.0000
     10 H5         -1.7400    1.2780   -0.0580 H         1 DMP1        0.0000
     11 C6         -0.0030    0.0000   -0.0030 C.ar      1 DMP1        0.0000
     12 N6         -0.7070   -1.2580   -0.0410 N.am      1 DMP1        0.0000
     13 C7         -1.9050   -1.3910    0.6280 C.2       1 DMP1        0.0000
     14 O7         -2.4250   -0.5560    1.3600 O.2       1 DMP1        0.0000
     15 N8         -2.3360   -2.6840    0.6480 N.am      1 DMP1        0.0000
     16 H8         -1.6760   -3.3790    0.3990 H         1 DMP1        0.0000
     17 C9         -3.5050   -3.0690    1.3980 C.3       1 DMP1        0.0000
     18 H91        -4.3950   -2.4960    1.0510 H         1 DMP1        0.0000
     19 H92        -3.3590   -2.8600    2.4820 H         1 DMP1        0.0000
     20 H93        -3.7120   -4.1530    1.2690 H         1 DMP1        0.0000
     21 C10        -0.1070   -2.3970   -0.7430 C.3       1 DMP1        0.0000
     22 H101        0.3180   -3.0910    0.0150 H         1 DMP1        0.0000
     23 H102        0.6930   -2.0360   -1.4270 H         1 DMP1        0.0000
     24 H103       -0.8810   -2.8900   -1.3740 H         1 DMP1        0.0000
@<TRIPOS>BOND
     1   23   21 1 
     2   24   21 1 
     3   21   12 1 
     4   21   22 1 
     5   10    9 1 
     6    8    7 1 
     7   12   11 1 
     8   12   13 am
     9    7    9 ar
    10    7    5 ar
    11    9   11 ar
    12    6    5 1 
    13    5    3 ar
    14    3    1 ar
    15    3    4 1 
    16    1   11 ar
    17    1    2 1 
    18   16   15 1 
    19   13   15 am
    20   13   14 2 
    21   15   17 1 
    22   18   17 1 
    23   20   17 1 
    24   17   19 1 
