@<TRIPOS>MOLECULE
C:\Users\Praveer\PycharmProjects\pdb_to_mol2_converter\data\pdb\dmsn.pdb
   11    10     0     0     0
SMALL
GASTEIGER

@<TRIPOS>ATOM
      1 S           1.7740   -0.0100    0.0090 S.O2      1 DMS1        0.0000
      2 O1          2.2040   -0.5580    1.2670 O.2       1 DMS1        0.0000
      3 O2          2.2230   -0.5710   -1.2350 O.2       1 DMS1        0.0000
      4 C3          2.1840    1.7230    0.0030 C.3       1 DMS1        0.0000
      5 H31         3.2900    1.8210    0.0100 H         1 DMS1        0.0000
      6 H32         1.7620    2.2050    0.9090 H         1 DMS1        0.0000
      7 H33         1.7750    2.1950   -0.9130 H         1 DMS1        0.0000
      8 C4         -0.0080   -0.0160   -0.0040 C.3       1 DMS1        0.0000
      9 H41        -0.3840    0.5020    0.9010 H         1 DMS1        0.0000
     10 H42        -0.3550   -1.0700   -0.0020 H         1 DMS1        0.0000
     11 H43        -0.3700    0.4940   -0.9200 H         1 DMS1        0.0000
@<TRIPOS>BOND
     1    3    1 2 
     2   11    8 1 
     3    7    4 1 
     4    8   10 1 
     5    8    1 1 
     6    8    9 1 
     7    4    1 1 
     8    4    5 1 
     9    4    6 1 
    10    1    2 2 
