@<TRIPOS>MOLECULE
C:\Users\Praveer\PycharmProjects\pdb_to_mol2_converter\data\pdb\dmso.pdb
   10     9     0     0     0
SMALL
GASTEIGER

@<TRIPOS>ATOM
      1 O1          2.2890   -0.4530   -1.3020 O.2       1 DMS1        0.0000
      2 S2          1.8150    0.0160    0.0690 S.O       1 DMS1        0.0000
      3 C3          0.0250   -0.0150   -0.0160 C.3       1 DMS1        0.0000
      4 H4         -0.3340   -1.0600   -0.1160 H         1 DMS1        0.0000
      5 H5         -0.3310    0.5510   -0.9020 H         1 DMS1        0.0000
      6 H6         -0.4290    0.4280    0.8950 H         1 DMS1        0.0000
      7 C7          1.9730    1.8010    0.0360 C.3       1 DMS1        0.0000
      8 H8          1.4600    2.2200   -0.8540 H         1 DMS1        0.0000
      9 H9          3.0440    2.0880   -0.0250 H         1 DMS1        0.0000
     10 H10         1.5370    2.2600    0.9470 H         1 DMS1        0.0000
@<TRIPOS>BOND
     1    1    2 2 
     2    5    3 1 
     3    8    7 1 
     4    4    3 1 
     5    9    7 1 
     6    3    2 1 
     7    3    6 1 
     8    7    2 1 
     9    7   10 1 
