@<TRIPOS>MOLECULE
C:\Users\Praveer\PycharmProjects\pdb_to_mol2_converter\data\pdb\dmtf.pdb
   19    19     0     0     0
SMALL
GASTEIGER

@<TRIPOS>ATOM
      1 O4'         1.4500    0.0520   -0.1450 O.3       1 DMT1        0.0000
      2 C1'         1.9850    1.3660   -0.0330 C.3       1 DMT1        0.0000
      3 C2'         1.0540    2.1960   -0.9060 C.3       1 DMT1        0.0000
      4 C3'        -0.2380    1.3620   -1.0000 C.3       1 DMT1        0.0000
      5 C4'         0.0310    0.1410   -0.1340 C.3       1 DMT1        0.0000
      6 H11'        1.8870    1.6560    1.0280 H         1 DMT1        0.0000
      7 H21'        1.4880    2.3390   -1.9080 H         1 DMT1        0.0000
      8 H22'        0.8860    3.1970   -0.4880 H         1 DMT1        0.0000
      9 H31'       -0.4140    1.0590   -2.0440 H         1 DMT1        0.0000
     10 H32'       -1.1300    1.9140   -0.6750 H         1 DMT1        0.0000
     11 H42'       -0.2660    0.3300    0.9120 H         1 DMT1        0.0000
     12 C5         -0.5920   -1.1570   -0.6340 C.3       1 DMT1        0.0000
     13 H51        -0.2960   -2.0000    0.0270 H         1 DMT1        0.0000
     14 H52        -0.2340   -1.3780   -1.6620 H         1 DMT1        0.0000
     15 H53        -1.6990   -1.0800   -0.6470 H         1 DMT1        0.0000
     16 C1          3.4500    1.3820   -0.4500 C.3       1 DMT1        0.0000
     17 H11         3.5500    1.0220   -1.4960 H         1 DMT1        0.0000
     18 H12         4.0410    0.7100    0.2070 H         1 DMT1        0.0000
     19 H13         3.8650    2.4090   -0.3820 H         1 DMT1        0.0000
@<TRIPOS>BOND
     1    9    4 1 
     2    7    3 1 
     3   14   12 1 
     4   17   16 1 
     5    4    3 1 
     6    4   10 1 
     7    4    5 1 
     8    3    8 1 
     9    3    2 1 
    10   15   12 1 
    11   12    5 1 
    12   12   13 1 
    13   16   19 1 
    14   16    2 1 
    15   16   18 1 
    16    1    5 1 
    17    1    2 1 
    18    5   11 1 
    19    2    6 1 
