@<TRIPOS>MOLECULE
C:\Users\Praveer\PycharmProjects\pdb_to_mol2_converter\data\pdb\dmtt.pdb
   12    11     0     0     0
SMALL
GASTEIGER

@<TRIPOS>ATOM
      1 C1         -0.3430   -1.8570    0.0300 C.3       1 DMT1        0.0000
      2 H11         0.0860   -2.3580    0.9250 H         1 DMT1        0.0000
      3 H12         0.0340   -2.3800   -0.8760 H         1 DMT1        0.0000
      4 H13        -1.4440   -2.0010    0.0640 H         1 DMT1        0.0000
      5 S1          0.0690   -0.0820   -0.0050 S.3       1 DMT1        0.0000
      6 C           1.8340   -0.1270   -0.0500 C.2       1 DMT1        0.0000
      7 S           2.7500   -1.4840   -0.0510 S.2       1 DMT1        0.0000
      8 S2          2.4500    1.5260   -0.0930 S.3       1 DMT1        0.0000
      9 C2          4.2510    1.2460   -0.1330 C.3       1 DMT1        0.0000
     10 H21         4.5530    0.6670   -1.0320 H         1 DMT1        0.0000
     11 H22         4.5970    0.6960    0.7690 H         1 DMT1        0.0000
     12 H23         4.7950    2.2150   -0.1620 H         1 DMT1        0.0000
@<TRIPOS>BOND
     1   10    9 1 
     2    3    1 1 
     3   12    9 1 
     4    9    8 1 
     5    9   11 1 
     6    8    6 1 
     7    7    6 2 
     8    6    5 1 
     9    5    1 1 
    10    1    4 1 
    11    1    2 1 
