@<TRIPOS>MOLECULE
C:\Users\Praveer\PycharmProjects\pdb_to_mol2_converter\data\pdb\dnpa.pdb
  156   155     0     0     0
SMALL
GASTEIGER

@<TRIPOS>ATOM
      1 P           1.5430    0.0480   -0.0360 P.3       1 DNP1        0.0000
      2 O13         2.0660   -0.4550   -1.3170 O.2       1 DNP1        0.0000
      3 O14         2.0950   -0.5070    1.2100 O.3       1 DNP1        0.0000
      4 O12         1.9880    1.5500   -0.0100 O.3       1 DNP1        0.0000
      5 H12         2.9480    1.5430   -0.0110 H         1 DNP1        0.0000
      6 O11        -0.0370    0.0360   -0.0240 O.3       1 DNP1        0.0000
      7 C1         -0.6870   -1.2210   -0.2450 C.3       1 DNP1        0.0000
      8 HA         -0.2660   -2.0220    0.4110 H         1 DNP1        0.0000
      9 HB         -0.5640   -1.5280   -1.3100 H         1 DNP1        0.0000
     10 C2         -2.2010   -1.1160    0.0680 C.3       1 DNP1        0.0000
     11 HS         -2.5990   -0.2780   -0.5540 H         1 DNP1        0.0000
     12 O21        -2.3470   -0.8690    1.4800 O.3       1 DNP1        0.0000
     13 C21        -3.3630   -0.1060    1.8190 C.2       1 DNP1        0.0000
     14 O22        -4.1990    0.3690    1.0690 O.2       1 DNP1        0.0000
     15 C22        -3.3540    0.0680    3.3380 C.3       1 DNP1        0.0000
     16 H2R        -2.4020    0.5660    3.6180 H         1 DNP1        0.0000
     17 H2S        -3.3710   -0.9440    3.7920 H         1 DNP1        0.0000
     18 C3         -2.9380   -2.4300   -0.3210 C.3       1 DNP1        0.0000
     19 HX         -2.4400   -3.2530    0.2390 H         1 DNP1        0.0000
     20 HY         -2.7810   -2.6360   -1.4050 H         1 DNP1        0.0000
     21 O31        -4.3340   -2.4110    0.0490 O.3       1 DNP1        0.0000
     22 C31        -5.1520   -1.8750   -0.8520 C.2       1 DNP1        0.0000
     23 O32        -4.8480   -1.5500   -1.9850 O.2       1 DNP1        0.0000
     24 C32        -6.5470   -1.7590   -0.2350 C.3       1 DNP1        0.0000
     25 H2X        -6.5080   -0.9420    0.5160 H         1 DNP1        0.0000
     26 H2Y        -6.7740   -2.7110    0.2880 H         1 DNP1        0.0000
     27 C23        -4.5600    0.8920    3.8360 C.3       1 DNP1        0.0000
     28 H3R        -5.5060    0.4320    3.4680 H         1 DNP1        0.0000
     29 H3S        -4.5060    1.9240    3.4190 H         1 DNP1        0.0000
     30 C24        -4.6230    0.9700    5.3670 C.3       1 DNP1        0.0000
     31 H4R        -3.6890    1.4380    5.7510 H         1 DNP1        0.0000
     32 H4S        -4.6790   -0.0630    5.7790 H         1 DNP1        0.0000
     33 C25        -5.8340    1.7720    5.8610 C.3       1 DNP1        0.0000
     34 H5R        -6.7610    1.3310    5.4300 H         1 DNP1        0.0000
     35 H5S        -5.7540    2.8190    5.4900 H         1 DNP1        0.0000
     36 C26        -5.9550    1.7840    7.3900 C.3       1 DNP1        0.0000
     37 H6R        -5.0330    2.2270    7.8290 H         1 DNP1        0.0000
     38 H6S        -6.0330    0.7350    7.7550 H         1 DNP1        0.0000
     39 C27        -7.1780    2.5740    7.8760 C.3       1 DNP1        0.0000
     40 H7R        -8.0940    2.1470    7.4100 H         1 DNP1        0.0000
     41 H7S        -7.0870    3.6300    7.5370 H         1 DNP1        0.0000
     42 C28        -7.3340    2.5440    9.4020 C.3       1 DNP1        0.0000
     43 H8R        -6.4200    2.9700    9.8720 H         1 DNP1        0.0000
     44 H8S        -7.4250    1.4860    9.7360 H         1 DNP1        0.0000
     45 C29        -8.5610    3.3290    9.8840 C.3       1 DNP1        0.0000
     46 H9R        -9.4730    2.9110    9.4000 H         1 DNP1        0.0000
     47 H9S        -8.4650    4.3910    9.5640 H         1 DNP1        0.0000
     48 C210       -8.7350    3.2760   11.4080 C.3       1 DNP1        0.0000
     49 H10R       -7.8250    3.6930   11.8950 H         1 DNP1        0.0000
     50 H10S       -8.8320    2.2130   11.7250 H         1 DNP1        0.0000
     51 C211       -9.9660    4.0560   11.8890 C.3       1 DNP1        0.0000
     52 H11R      -10.8730    3.6490   11.3870 H         1 DNP1        0.0000
     53 H11S       -9.8630    5.1230   11.5900 H         1 DNP1        0.0000
     54 C212      -10.1590    3.9760   13.4100 C.3       1 DNP1        0.0000
     55 H12R       -9.2570    4.3870   13.9160 H         1 DNP1        0.0000
     56 H12S      -10.2560    2.9070   13.7070 H         1 DNP1        0.0000
     57 C213      -11.3990    4.7440   13.8890 C.3       1 DNP1        0.0000
     58 H13R      -12.2910    4.3480   13.3520 H         1 DNP1        0.0000
     59 H13S      -11.2840    5.8170   13.6140 H         1 DNP1        0.0000
     60 C214      -11.6130    4.6210   15.4100 C.3       1 DNP1        0.0000
     61 H14R      -10.6900    4.9880   15.9120 H         1 DNP1        0.0000
     62 H14S      -11.7150    3.5430   15.6650 H         1 DNP1        0.0000
     63 C215      -12.8420    5.3740   15.8590 C.2       1 DNP1        0.0000
     64 H15R      -13.7600    5.1280   15.3030 H         1 DNP1        0.0000
     65 C216      -12.9030    6.3100   16.8250 C.2       1 DNP1        0.0000
     66 H16R      -13.8700    6.7930   17.0350 H         1 DNP1        0.0000
     67 C217      -11.7590    6.7790   17.6910 C.3       1 DNP1        0.0000
     68 H17R      -10.9880    5.9850   17.8120 H         1 DNP1        0.0000
     69 H17S      -12.1300    7.0120   18.7140 H         1 DNP1        0.0000
     70 C218      -11.0730    8.0310   17.1170 C.3       1 DNP1        0.0000
     71 H18R      -11.8140    8.8570   17.0230 H         1 DNP1        0.0000
     72 H18S      -10.6840    7.8060   16.0980 H         1 DNP1        0.0000
     73 C219       -9.9070    8.5110   17.9930 C.3       1 DNP1        0.0000
     74 H19R       -9.1640    7.6870   18.0900 H         1 DNP1        0.0000
     75 H19S      -10.2880    8.7440   19.0120 H         1 DNP1        0.0000
     76 C220       -9.2080    9.7510   17.4210 C.3       1 DNP1        0.0000
     77 H20R       -9.9490   10.5760   17.3260 H         1 DNP1        0.0000
     78 H20S       -8.8290    9.5170   16.4010 H         1 DNP1        0.0000
     79 C221       -8.0380   10.2240   18.2950 C.3       1 DNP1        0.0000
     80 H21R       -7.2960    9.3990   18.3870 H         1 DNP1        0.0000
     81 H21S       -8.4170   10.4540   19.3160 H         1 DNP1        0.0000
     82 C222       -7.3400   11.4670   17.7270 C.3       1 DNP1        0.0000
     83 H22R       -8.0820   12.2910   17.6320 H         1 DNP1        0.0000
     84 H22S       -6.9580   11.2370   16.7070 H         1 DNP1        0.0000
     85 C223       -6.1730   11.9420   18.6030 C.3       1 DNP1        0.0000
     86 H23R       -5.4350   11.1130   18.6970 H         1 DNP1        0.0000
     87 H23S       -6.5590   12.1620   19.6250 H         1 DNP1        0.0000
     88 C224       -5.4680   13.1850   18.0530 C.3       1 DNP1        0.0000
     89 H24R       -6.1820   14.0330   17.9730 H         1 DNP1        0.0000
     90 H24S       -5.0530   12.9810   17.0430 H         1 DNP1        0.0000
     91 H24T       -4.6340   13.4900   18.7220 H         1 DNP1        0.0000
     92 C33        -7.6430   -1.4560   -1.2800 C.3       1 DNP1        0.0000
     93 H3X        -7.6540   -2.2590   -2.0520 H         1 DNP1        0.0000
     94 H3Y        -7.4160   -0.4950   -1.7960 H         1 DNP1        0.0000
     95 C34        -9.0330   -1.3650   -0.6380 C.3       1 DNP1        0.0000
     96 H4X        -9.0410   -0.5300    0.0990 H         1 DNP1        0.0000
     97 H4Y        -9.2380   -2.3070   -0.0820 H         1 DNP1        0.0000
     98 C35       -10.1530   -1.1430   -1.6640 C.3       1 DNP1        0.0000
     99 H5X       -10.1350   -1.9740   -2.4050 H         1 DNP1        0.0000
    100 H5Y        -9.9640   -0.1940   -2.2140 H         1 DNP1        0.0000
    101 C36       -11.5420   -1.0840   -1.0120 C.3       1 DNP1        0.0000
    102 H6X       -11.5710   -0.2380   -0.2890 H         1 DNP1        0.0000
    103 H6Y       -11.7120   -2.0240   -0.4400 H         1 DNP1        0.0000
    104 C37       -12.6740   -0.9130   -2.0350 C.3       1 DNP1        0.0000
    105 H7X       -12.6350   -1.7570   -2.7610 H         1 DNP1        0.0000
    106 H7Y       -12.5150    0.0300   -2.6040 H         1 DNP1        0.0000
    107 C38       -14.0600   -0.8810   -1.3780 C.3       1 DNP1        0.0000
    108 H8X       -14.1090   -0.0240   -0.6690 H         1 DNP1        0.0000
    109 H8Y       -14.2030   -1.8150   -0.7880 H         1 DNP1        0.0000
    110 C39       -15.2010   -0.7590   -2.3980 C.3       1 DNP1        0.0000
    111 H9X       -15.1440   -1.6150   -3.1080 H         1 DNP1        0.0000
    112 H9Y       -15.0700    0.1770   -2.9850 H         1 DNP1        0.0000
    113 C310      -16.5850   -0.7500   -1.7350 C.3       1 DNP1        0.0000
    114 H10X      -16.6550    0.1190   -1.0430 H         1 DNP1        0.0000
    115 H10Y      -16.7000   -1.6760   -1.1270 H         1 DNP1        0.0000
    116 C311      -17.7330   -0.6800   -2.7520 C.3       1 DNP1        0.0000
    117 H11X      -17.6510   -1.5460   -3.4470 H         1 DNP1        0.0000
    118 H11Y      -17.6340    0.2490   -3.3560 H         1 DNP1        0.0000
    119 C312      -19.1150   -0.7050   -2.0840 C.3       1 DNP1        0.0000
    120 H12X      -19.2210    0.1870   -1.4270 H         1 DNP1        0.0000
    121 H12Y      -19.1890   -1.6100   -1.4410 H         1 DNP1        0.0000
    122 C313      -20.2660   -0.7250   -3.1010 C.3       1 DNP1        0.0000
    123 H13X      -20.1330   -1.6110   -3.7630 H         1 DNP1        0.0000
    124 H13Y      -20.2030    0.1880   -3.7370 H         1 DNP1        0.0000
    125 C314      -21.6470   -0.7850   -2.4220 C.3       1 DNP1        0.0000
    126 H14X      -21.7460    0.1130   -1.7750 H         1 DNP1        0.0000
    127 H14Y      -21.6680   -1.6700   -1.7480 H         1 DNP1        0.0000
    128 C315      -22.7620   -0.8930   -3.4350 C.2       1 DNP1        0.0000
    129 H15X      -22.6880   -1.7710   -4.0960 H         1 DNP1        0.0000
    130 C316      -23.7910   -0.0430   -3.6130 C.2       1 DNP1        0.0000
    131 H16X      -24.5180   -0.2600   -4.4110 H         1 DNP1        0.0000
    132 C317      -24.0840    1.2140   -2.8300 C.3       1 DNP1        0.0000
    133 H17X      -23.4960    1.2700   -1.8880 H         1 DNP1        0.0000
    134 H17Y      -25.1560    1.2300   -2.5320 H         1 DNP1        0.0000
    135 C318      -23.7870    2.4780   -3.6570 C.3       1 DNP1        0.0000
    136 H18X      -24.3900    2.4670   -4.5930 H         1 DNP1        0.0000
    137 H18Y      -22.7110    2.4880   -3.9460 H         1 DNP1        0.0000
    138 C319      -24.1010    3.7700   -2.8870 C.3       1 DNP1        0.0000
    139 H19X      -23.4890    3.7970   -1.9580 H         1 DNP1        0.0000
    140 H19Y      -25.1720    3.7630   -2.5870 H         1 DNP1        0.0000
    141 C320      -23.8190    5.0310   -3.7140 C.3       1 DNP1        0.0000
    142 H20X      -24.4320    5.0010   -4.6430 H         1 DNP1        0.0000
    143 H20Y      -22.7480    5.0370   -4.0170 H         1 DNP1        0.0000
    144 C321      -24.1320    6.3240   -2.9480 C.3       1 DNP1        0.0000
    145 H21X      -23.5110    6.3600   -2.0250 H         1 DNP1        0.0000
    146 H21Y      -25.2010    6.3120   -2.6370 H         1 DNP1        0.0000
    147 C322      -23.8670    7.5840   -3.7830 C.3       1 DNP1        0.0000
    148 H22X      -24.4890    7.5470   -4.7060 H         1 DNP1        0.0000
    149 H22Y      -22.7990    7.5970   -4.0960 H         1 DNP1        0.0000
    150 C323      -24.1820    8.8770   -3.0200 C.3       1 DNP1        0.0000
    151 H23X      -23.5580    8.9100   -2.0980 H         1 DNP1        0.0000
    152 H23Y      -25.2480    8.8540   -2.7000 H         1 DNP1        0.0000
    153 C324      -23.9300   10.1430   -3.8430 C.3       1 DNP1        0.0000
    154 H24X      -24.5630   10.1440   -4.7570 H         1 DNP1        0.0000
    155 H24Y      -22.8650   10.2000   -4.1540 H         1 DNP1        0.0000
    156 H24Z      -24.1710   11.0510   -3.2490 H         1 DNP1        0.0000
@<TRIPOS>BOND
     1  154  153 1 
     2  148  147 1 
     3  142  141 1 
     4  136  135 1 
     5  131  130 1 
     6  155  153 1 
     7  149  147 1 
     8  129  128 1 
     9  143  141 1 
    10  137  135 1 
    11  153  156 1 
    12  153  150 1 
    13  147  150 1 
    14  147  144 1 
    15  123  122 1 
    16  124  122 1 
    17  141  144 1 
    18  141  138 1 
    19  135  138 1 
    20  135  132 1 
    21  130  128 2 
    22  130  132 1 
    23  117  116 1 
    24  128  125 1 
    25  118  116 1 
    26  111  110 1 
    27  122  125 1 
    28  122  119 1 
    29  150  152 1 
    30  150  151 1 
    31  112  110 1 
    32  144  146 1 
    33  144  145 1 
    34  138  140 1 
    35  138  139 1 
    36  132  134 1 
    37  132  133 1 
    38  105  104 1 
    39  116  119 1 
    40  116  113 1 
    41  106  104 1 
    42  125  126 1 
    43  125  127 1 
    44   99   98 1 
    45  110  113 1 
    46  110  107 1 
    47  100   98 1 
    48  119  121 1 
    49  119  120 1 
    50   93   92 1 
    51  104  107 1 
    52  104  101 1 
    53   23   22 2 
    54   94   92 1 
    55  113  115 1 
    56  113  114 1 
    57   98  101 1 
    58   98   95 1 
    59   20   18 1 
    60  107  109 1 
    61  107  108 1 
    62    2    1 2 
    63    9    7 1 
    64   92   95 1 
    65   92   24 1 
    66  101  103 1 
    67  101  102 1 
    68   22   24 1 
    69   22   21 1 
    70   95   97 1 
    71   95   96 1 
    72   11   10 1 
    73   18   21 1 
    74   18   10 1 
    75   18   19 1 
    76    7    6 1 
    77    7   10 1 
    78    7    8 1 
    79   24   26 1 
    80   24   25 1 
    81    1    6 1 
    82    1    4 1 
    83    1    3 1 
    84    5    4 1 
    85   10   12 1 
    86   14   13 2 
    87   12   13 1 
    88   13   15 1 
    89   15   16 1 
    90   15   17 1 
    91   15   27 1 
    92   29   27 1 
    93   28   27 1 
    94   27   30 1 
    95   30   31 1 
    96   30   32 1 
    97   30   33 1 
    98   34   33 1 
    99   35   33 1 
   100   33   36 1 
   101   36   38 1 
   102   36   37 1 
   103   36   39 1 
   104   40   39 1 
   105   41   39 1 
   106   39   42 1 
   107   46   45 1 
   108   42   44 1 
   109   42   43 1 
   110   42   45 1 
   111   47   45 1 
   112   45   48 1 
   113   52   51 1 
   114   48   50 1 
   115   48   51 1 
   116   48   49 1 
   117   53   51 1 
   118   51   54 1 
   119   58   57 1 
   120   54   56 1 
   121   54   57 1 
   122   54   55 1 
   123   59   57 1 
   124   57   60 1 
   125   64   63 1 
   126   60   62 1 
   127   60   63 1 
   128   60   61 1 
   129   63   65 2 
   130   72   70 1 
   131   78   76 1 
   132   84   82 1 
   133   65   66 1 
   134   65   67 1 
   135   71   70 1 
   136   90   88 1 
   137   70   67 1 
   138   70   73 1 
   139   77   76 1 
   140   76   73 1 
   141   76   79 1 
   142   83   82 1 
   143   67   68 1 
   144   67   69 1 
   145   82   79 1 
   146   82   85 1 
   147   89   88 1 
   148   73   74 1 
   149   73   75 1 
   150   88   85 1 
   151   88   91 1 
   152   79   80 1 
   153   79   81 1 
   154   85   86 1 
   155   85   87 1 
