@<TRIPOS>MOLECULE
C:\Users\Praveer\PycharmProjects\pdb_to_mol2_converter\data\pdb\dnpc.pdb
  174   173     0     0     0
SMALL
GASTEIGER

@<TRIPOS>ATOM
      1 N           1.5090   -0.0040   -0.0060 N.4       1 DNP1        0.0000
      2 C13         2.0050   -0.7200   -1.2230 C.3       1 DNP1        0.0000
      3 H13A        1.6480   -1.7410   -1.2460 H         1 DNP1        0.0000
      4 H13B        3.0860   -0.7250   -1.2610 H         1 DNP1        0.0000
      5 H13C        1.6410   -0.2170   -2.1140 H         1 DNP1        0.0000
      6 C14         1.9870   -0.6880    1.2380 C.3       1 DNP1        0.0000
      7 H14A        3.0680   -0.7030    1.2900 H         1 DNP1        0.0000
      8 H14B        1.6250   -1.7070    1.2800 H         1 DNP1        0.0000
      9 H14C        1.6110   -0.1670    2.1140 H         1 DNP1        0.0000
     10 C15         0.0060   -0.0120    0.0040 C.3       1 DNP1        0.0000
     11 H15A       -0.4180   -0.9990    0.0020 H         1 DNP1        0.0000
     12 H15B       -0.3940    0.5580   -0.8400 H         1 DNP1        0.0000
     13 H15C       -0.3680    0.5470    0.8660 H         1 DNP1        0.0000
     14 C12         1.9730    1.4450   -0.0080 C.3       1 DNP1        0.0000
     15 H12A        3.0390    1.5230    0.1350 H         1 DNP1        0.0000
     16 H12B        1.5140    1.9500    0.8500 H         1 DNP1        0.0000
     17 C11         1.5690    2.3020   -1.2260 C.3       1 DNP1        0.0000
     18 H11A        0.8990    1.7650   -1.9340 H         1 DNP1        0.0000
     19 H11B        2.4840    2.5740   -1.7980 H         1 DNP1        0.0000
     20 P          -0.4630    3.3750   -0.0410 P.3       1 DNP1        0.0000
     21 O13        -1.3470    2.5580   -0.9010 O.2       1 DNP1        0.0000
     22 O14        -0.2180    2.8410    1.3190 O.3       1 DNP1        0.0000
     23 O12         0.9510    3.4950   -0.7550 O.3       1 DNP1        0.0000
     24 O11        -0.9810    4.8670    0.0290 O.3       1 DNP1        0.0000
     25 C1         -2.3520    5.0860    0.3790 C.3       1 DNP1        0.0000
     26 HA         -2.6380    4.5050    1.2880 H         1 DNP1        0.0000
     27 HB         -3.0130    4.7820   -0.4650 H         1 DNP1        0.0000
     28 C2         -2.6070    6.5820    0.6930 C.3       1 DNP1        0.0000
     29 HS         -2.3140    7.1570   -0.2180 H         1 DNP1        0.0000
     30 O21        -1.8140    6.9380    1.8420 O.3       1 DNP1        0.0000
     31 C21        -1.3760    8.1810    1.8610 C.2       1 DNP1        0.0000
     32 O22        -1.5810    9.0360    1.0170 O.2       1 DNP1        0.0000
     33 C22        -0.5810    8.3990    3.1490 C.3       1 DNP1        0.0000
     34 H2R         0.2750    7.6930    3.1460 H         1 DNP1        0.0000
     35 H2S        -1.2450    8.1480    4.0020 H         1 DNP1        0.0000
     36 C3         -4.1150    6.8350    0.9850 C.3       1 DNP1        0.0000
     37 HX         -4.3920    6.1730    1.8360 H         1 DNP1        0.0000
     38 HY         -4.7220    6.5050    0.1110 H         1 DNP1        0.0000
     39 O31        -4.3850    8.2000    1.3710 O.3       1 DNP1        0.0000
     40 C31        -4.6060    9.0380    0.3610 C.2       1 DNP1        0.0000
     41 O32        -4.7280    8.7240   -0.8090 O.2       1 DNP1        0.0000
     42 C32        -4.7090   10.4580    0.9200 C.3       1 DNP1        0.0000
     43 H2X        -3.6860   10.7680    1.2230 H         1 DNP1        0.0000
     44 H2Y        -5.3530   10.4290    1.8220 H         1 DNP1        0.0000
     45 C23        -0.0770    9.8530    3.2810 C.3       1 DNP1        0.0000
     46 H3R        -0.9380   10.5560    3.1970 H         1 DNP1        0.0000
     47 H3S         0.6240   10.0820    2.4460 H         1 DNP1        0.0000
     48 C24         0.6310   10.1090    4.6180 C.3       1 DNP1        0.0000
     49 H4R         1.5000    9.4190    4.7130 H         1 DNP1        0.0000
     50 H4S        -0.0740    9.8830    5.4500 H         1 DNP1        0.0000
     51 C25         1.1170   11.5580    4.7550 C.3       1 DNP1        0.0000
     52 H5R         0.2530   12.2450    4.6130 H         1 DNP1        0.0000
     53 H5S         1.8550   11.7730    3.9500 H         1 DNP1        0.0000
     54 C26         1.7590   11.8420    6.1200 C.3       1 DNP1        0.0000
     55 H6R         2.6270   11.1610    6.2670 H         1 DNP1        0.0000
     56 H6S         1.0170   11.6230    6.9210 H         1 DNP1        0.0000
     57 C27         2.2280   13.2970    6.2590 C.3       1 DNP1        0.0000
     58 H7R         1.3640   13.9760    6.0810 H         1 DNP1        0.0000
     59 H7S         2.9920   13.5100    5.4770 H         1 DNP1        0.0000
     60 C28         2.8230   13.5980    7.6410 C.3       1 DNP1        0.0000
     61 H8R         3.6880   12.9220    7.8240 H         1 DNP1        0.0000
     62 H8S         2.0560   13.3850    8.4200 H         1 DNP1        0.0000
     63 C29         3.2840   15.0560    7.7790 C.3       1 DNP1        0.0000
     64 H9R         2.4220   15.7300    7.5750 H         1 DNP1        0.0000
     65 H9S         4.0650   15.2650    7.0140 H         1 DNP1        0.0000
     66 C210        3.8450   15.3700    9.1720 C.3       1 DNP1        0.0000
     67 H10R        4.7080   14.6980    9.3800 H         1 DNP1        0.0000
     68 H10S        3.0620   15.1600    9.9340 H         1 DNP1        0.0000
     69 C211        4.2990   16.8300    9.3110 C.3       1 DNP1        0.0000
     70 H11R        3.4400   17.5000    9.0800 H         1 DNP1        0.0000
     71 H11S        5.0990   17.0360    8.5650 H         1 DNP1        0.0000
     72 C212        4.8230   17.1540   10.7160 C.3       1 DNP1        0.0000
     73 H12R        5.6840   16.4880   10.9490 H         1 DNP1        0.0000
     74 H12S        4.0220   16.9440   11.4590 H         1 DNP1        0.0000
     75 C213        5.2670   18.6180   10.8580 C.3       1 DNP1        0.0000
     76 H13R        4.4100   19.2760   10.5910 H         1 DNP1        0.0000
     77 H13S        6.0870   18.8140   10.1310 H         1 DNP1        0.0000
     78 C214        5.7500   18.9480   12.2830 C.3       1 DNP1        0.0000
     79 H14R        6.5760   18.2440   12.5320 H         1 DNP1        0.0000
     80 H14S        4.9200   18.7370   12.9930 H         1 DNP1        0.0000
     81 C215        6.1760   20.3910   12.4040 C.2       1 DNP1        0.0000
     82 H15R        5.4260   21.1210   12.0610 H         1 DNP1        0.0000
     83 C216        7.3620   20.8460   12.8490 C.2       1 DNP1        0.0000
     84 H16R        7.5420   21.9320   12.8650 H         1 DNP1        0.0000
     85 C217        8.5080   20.0070   13.3600 C.3       1 DNP1        0.0000
     86 H17R        8.1500   19.0420   13.7840 H         1 DNP1        0.0000
     87 H17S        9.0260   20.5380   14.1890 H         1 DNP1        0.0000
     88 C218        9.5360   19.6960   12.2570 C.3       1 DNP1        0.0000
     89 H18R        9.9400   20.6450   11.8400 H         1 DNP1        0.0000
     90 H18S        9.0330   19.1470   11.4270 H         1 DNP1        0.0000
     91 C219       10.7050   18.8440   12.7730 C.3       1 DNP1        0.0000
     92 H19R       10.3040   17.8940   13.1920 H         1 DNP1        0.0000
     93 H19S       11.2170   19.3880   13.5970 H         1 DNP1        0.0000
     94 C220       11.7270   18.5140   11.6760 C.3       1 DNP1        0.0000
     95 H20R       12.1310   19.4630   11.2570 H         1 DNP1        0.0000
     96 H20S       11.2130   17.9720   10.8510 H         1 DNP1        0.0000
     97 C221       12.8910   17.6570   12.1930 C.3       1 DNP1        0.0000
     98 H21R       12.4860   16.7080   12.6110 H         1 DNP1        0.0000
     99 H21S       13.4030   18.1990   13.0200 H         1 DNP1        0.0000
    100 C222       13.9150   17.3290   11.0980 C.3       1 DNP1        0.0000
    101 H22R       14.3190   18.2780   10.6800 H         1 DNP1        0.0000
    102 H22S       13.4030   16.7860   10.2720 H         1 DNP1        0.0000
    103 C223       15.0790   16.4730   11.6140 C.3       1 DNP1        0.0000
    104 H23R       14.6700   15.5260   12.0340 H         1 DNP1        0.0000
    105 H23S       15.5820   17.0170   12.4460 H         1 DNP1        0.0000
    106 C224       16.1120   16.1400   10.5350 C.3       1 DNP1        0.0000
    107 H24R       16.5520   17.0710   10.1170 H         1 DNP1        0.0000
    108 H24S       15.6370   15.5740    9.7040 H         1 DNP1        0.0000
    109 H24T       16.9330   15.5210   10.9570 H         1 DNP1        0.0000
    110 C33        -5.2790   11.4660   -0.1020 C.3       1 DNP1        0.0000
    111 H3X        -6.2890   11.1320   -0.4340 H         1 DNP1        0.0000
    112 H3Y        -4.6240   11.5010   -1.0030 H         1 DNP1        0.0000
    113 C34        -5.3920   12.8760    0.4920 C.3       1 DNP1        0.0000
    114 H4X        -4.3780   13.2310    0.7840 H         1 DNP1        0.0000
    115 H4Y        -6.0130   12.8320    1.4150 H         1 DNP1        0.0000
    116 C35        -6.0190   13.8880   -0.4780 C.3       1 DNP1        0.0000
    117 H5X        -7.0300   13.5270   -0.7740 H         1 DNP1        0.0000
    118 H5Y        -5.3980   13.9480   -1.3990 H         1 DNP1        0.0000
    119 C36        -6.1470   15.2860    0.1420 C.3       1 DNP1        0.0000
    120 H6X        -5.1340   15.6580    0.4140 H         1 DNP1        0.0000
    121 H6Y        -6.7430   15.2130    1.0800 H         1 DNP1        0.0000
    122 C37        -6.8210   16.2980   -0.7950 C.3       1 DNP1        0.0000
    123 H7X        -7.8320   15.9200   -1.0700 H         1 DNP1        0.0000
    124 H7Y        -6.2270   16.3850   -1.7320 H         1 DNP1        0.0000
    125 C38        -6.9630   17.6860   -0.1560 C.3       1 DNP1        0.0000
    126 H8X        -5.9520   18.0780    0.0950 H         1 DNP1        0.0000
    127 H8Y        -7.5330   17.5890    0.7960 H         1 DNP1        0.0000
    128 C39        -7.6830   18.6900   -1.0670 C.3       1 DNP1        0.0000
    129 H9X        -8.6900   18.2900   -1.3190 H         1 DNP1        0.0000
    130 H9Y        -7.1130   18.7970   -2.0170 H         1 DNP1        0.0000
    131 C310       -7.8430   20.0700   -0.4140 C.3       1 DNP1        0.0000
    132 H10X       -6.8360   20.4880   -0.1880 H         1 DNP1        0.0000
    133 H10Y       -8.3840   19.9520    0.5520 H         1 DNP1        0.0000
    134 C311       -8.6140   21.0580   -1.2990 C.3       1 DNP1        0.0000
    135 H11X       -9.6150   20.6290   -1.5300 H         1 DNP1        0.0000
    136 H11Y       -8.0720   21.1920   -2.2610 H         1 DNP1        0.0000
    137 C312       -8.8010   22.4270   -0.6290 C.3       1 DNP1        0.0000
    138 H12X       -7.8030   22.8800   -0.4350 H         1 DNP1        0.0000
    139 H12Y       -9.3030   22.2810    0.3540 H         1 DNP1        0.0000
    140 C313       -9.6410   23.3940   -1.4760 C.3       1 DNP1        0.0000
    141 H13X      -10.6270   22.9170   -1.6790 H         1 DNP1        0.0000
    142 H13Y       -9.1320   23.5540   -2.4530 H         1 DNP1        0.0000
    143 C314       -9.8540   24.7510   -0.7780 C.3       1 DNP1        0.0000
    144 H14X       -8.8530   25.1980   -0.5920 H         1 DNP1        0.0000
    145 H14Y      -10.3110   24.5640    0.2190 H         1 DNP1        0.0000
    146 C315      -10.7500   25.6590   -1.5850 C.2       1 DNP1        0.0000
    147 H15X      -11.7500   25.2430   -1.7870 H         1 DNP1        0.0000
    148 C316      -10.4520   26.8770   -2.0780 C.2       1 DNP1        0.0000
    149 H16X      -11.2210   27.4080   -2.6610 H         1 DNP1        0.0000
    150 C317       -9.1540   27.6330   -1.9270 C.3       1 DNP1        0.0000
    151 H17X       -8.5030   27.1960   -1.1390 H         1 DNP1        0.0000
    152 H17Y       -9.3630   28.6800   -1.6170 H         1 DNP1        0.0000
    153 C318       -8.3580   27.6630   -3.2440 C.3       1 DNP1        0.0000
    154 H18X       -8.9760   28.1270   -4.0470 H         1 DNP1        0.0000
    155 H18Y       -8.1200   26.6210   -3.5580 H         1 DNP1        0.0000
    156 C319       -7.0460   28.4510   -3.1180 C.3       1 DNP1        0.0000
    157 H19X       -6.4160   27.9850   -2.3280 H         1 DNP1        0.0000
    158 H19Y       -7.2760   29.4920   -2.7970 H         1 DNP1        0.0000
    159 C320       -6.2560   28.4950   -4.4330 C.3       1 DNP1        0.0000
    160 H20X       -6.8880   28.9620   -5.2210 H         1 DNP1        0.0000
    161 H20Y       -6.0270   27.4550   -4.7550 H         1 DNP1        0.0000
    162 C321       -4.9450   29.2830   -4.3090 C.3       1 DNP1        0.0000
    163 H21X       -4.3080   28.8110   -3.5280 H         1 DNP1        0.0000
    164 H21Y       -5.1730   30.3210   -3.9780 H         1 DNP1        0.0000
    165 C322       -4.1640   29.3390   -5.6300 C.3       1 DNP1        0.0000
    166 H22X       -4.8030   29.8110   -6.4100 H         1 DNP1        0.0000
    167 H22Y       -3.9370   28.3010   -5.9630 H         1 DNP1        0.0000
    168 C323       -2.8530   30.1260   -5.5110 C.3       1 DNP1        0.0000
    169 H23X       -2.2190   29.6500   -4.7290 H         1 DNP1        0.0000
    170 H23Y       -3.0860   31.1600   -5.1680 H         1 DNP1        0.0000
    171 C324       -2.0680   30.1970   -6.8240 C.3       1 DNP1        0.0000
    172 H24X       -2.6740   30.6920   -7.6130 H         1 DNP1        0.0000
    173 H24Y       -1.8050   29.1750   -7.1740 H         1 DNP1        0.0000
    174 H24Z       -1.1290   30.7750   -6.6870 H         1 DNP1        0.0000
@<TRIPOS>BOND
     1  172  171 1 
     2  173  171 1 
     3  171  174 1 
     4  171  168 1 
     5  166  165 1 
     6  167  165 1 
     7  165  168 1 
     8  165  162 1 
     9  168  170 1 
    10  168  169 1 
    11  160  159 1 
    12  161  159 1 
    13  159  162 1 
    14  159  156 1 
    15  162  164 1 
    16  162  163 1 
    17  154  153 1 
    18  155  153 1 
    19  153  156 1 
    20  153  150 1 
    21  156  158 1 
    22  156  157 1 
    23  149  148 1 
    24  142  140 1 
    25  136  134 1 
    26    5    2 1 
    27  148  150 1 
    28  148  146 2 
    29  130  128 1 
    30   18   17 1 
    31  150  152 1 
    32  150  151 1 
    33   19   17 1 
    34  147  146 1 
    35  124  122 1 
    36  141  140 1 
    37  146  143 1 
    38  135  134 1 
    39  140  143 1 
    40  140  137 1 
    41  118  116 1 
    42  129  128 1 
    43  134  137 1 
    44  134  131 1 
    45    4    2 1 
    46    3    2 1 
    47   17   23 1 
    48   17   14 1 
    49    2    1 1 
    50  123  122 1 
    51  128  131 1 
    52  128  125 1 
    53  112  110 1 
    54   21   20 2 
    55   12   10 1 
    56   41   40 2 
    57  122  125 1 
    58  122  119 1 
    59  143  144 1 
    60  143  145 1 
    61  117  116 1 
    62   23   20 1 
    63  137  138 1 
    64  137  139 1 
    65  116  119 1 
    66  116  113 1 
    67   27   25 1 
    68  111  110 1 
    69  131  132 1 
    70  131  133 1 
    71   29   28 1 
    72  125  126 1 
    73  125  127 1 
    74  110  113 1 
    75  110   42 1 
    76   20   24 1 
    77   20   22 1 
    78   14    1 1 
    79   14   15 1 
    80   14   16 1 
    81    1   10 1 
    82    1    6 1 
    83   11   10 1 
    84   10   13 1 
    85   24   25 1 
    86   38   36 1 
    87  119  120 1 
    88  119  121 1 
    89   40   42 1 
    90   40   39 1 
    91   25   28 1 
    92   25   26 1 
    93  113  114 1 
    94  113  115 1 
    95   28   36 1 
    96   28   30 1 
    97   42   43 1 
    98   42   44 1 
    99   36   39 1 
   100   36   37 1 
   101   32   31 2 
   102    6    8 1 
   103    6    7 1 
   104    6    9 1 
   105   30   31 1 
   106   31   33 1 
   107   47   45 1 
   108   34   33 1 
   109   33   45 1 
   110   33   35 1 
   111   46   45 1 
   112   45   48 1 
   113   53   51 1 
   114   52   51 1 
   115   48   49 1 
   116   48   51 1 
   117   48   50 1 
   118   51   54 1 
   119   59   57 1 
   120   58   57 1 
   121   54   57 1 
   122   54   55 1 
   123   54   56 1 
   124   57   60 1 
   125   65   63 1 
   126   64   63 1 
   127   60   63 1 
   128   60   61 1 
   129   60   62 1 
   130   63   66 1 
   131   71   69 1 
   132   70   69 1 
   133   66   69 1 
   134   66   67 1 
   135   66   68 1 
   136   69   72 1 
   137  108  106 1 
   138  107  106 1 
   139   77   75 1 
   140  102  100 1 
   141  106  109 1 
   142  106  103 1 
   143   76   75 1 
   144  101  100 1 
   145   72   75 1 
   146   72   73 1 
   147   72   74 1 
   148   96   94 1 
   149   75   78 1 
   150  100  103 1 
   151  100   97 1 
   152   95   94 1 
   153   90   88 1 
   154  103  104 1 
   155  103  105 1 
   156   94   97 1 
   157   94   91 1 
   158   89   88 1 
   159   82   81 1 
   160   97   98 1 
   161   97   99 1 
   162   88   91 1 
   163   88   85 1 
   164   78   81 1 
   165   78   79 1 
   166   78   80 1 
   167   81   83 2 
   168   91   92 1 
   169   91   93 1 
   170   83   84 1 
   171   83   85 1 
   172   85   86 1 
   173   85   87 1 
