@<TRIPOS>MOLECULE
C:\Users\Praveer\PycharmProjects\pdb_to_mol2_converter\data\pdb\dnpe.pdb
  165   164     0     0     0
SMALL
GASTEIGER

@<TRIPOS>ATOM
      1 N           1.0260    0.4170   -0.7020 N.4       1 DNP1        0.0000
      2 HN1         0.0550    0.2550   -0.3850 H         1 DNP1        0.0000
      3 HN2         1.5170   -0.4730   -0.9070 H         1 DNP1        0.0000
      4 HN3         1.0070    0.9640   -1.6140 H         1 DNP1        0.0000
      5 C12         1.8270    1.2620    0.2550 C.3       1 DNP1        0.0000
      6 H12A        1.9260    0.7000    1.2060 H         1 DNP1        0.0000
      7 H12B        1.2460    2.1930    0.4230 H         1 DNP1        0.0000
      8 C11         3.2340    1.6190   -0.2800 C.3       1 DNP1        0.0000
      9 H11A        3.8700    0.7150   -0.4270 H         1 DNP1        0.0000
     10 H11B        3.7350    2.2080    0.5210 H         1 DNP1        0.0000
     11 P           2.8790    1.7940   -2.8590 P.3       1 DNP1        0.0000
     12 O13         3.4450    0.4340   -2.8650 O.3       1 DNP1        0.0000
     13 O14         1.4020    1.8360   -2.9530 O.2       1 DNP1        0.0000
     14 O12         3.1980    2.4370   -1.4510 O.3       1 DNP1        0.0000
     15 O11         3.5740    2.7300   -3.9160 O.3       1 DNP1        0.0000
     16 C1          3.2460    2.5760   -5.2980 C.3       1 DNP1        0.0000
     17 HA          2.1400    2.5710   -5.4630 H         1 DNP1        0.0000
     18 HB          3.6760    1.6250   -5.6870 H         1 DNP1        0.0000
     19 C2          3.8370    3.7610   -6.0970 C.3       1 DNP1        0.0000
     20 HS          4.9190    3.8200   -5.8210 H         1 DNP1        0.0000
     21 O21         3.1020    4.9400   -5.7210 O.3       1 DNP1        0.0000
     22 C21         3.8070    6.0510   -5.6800 C.2       1 DNP1        0.0000
     23 O22         5.0020    6.1620   -5.9010 O.2       1 DNP1        0.0000
     24 C22         2.8690    7.2090   -5.3470 C.3       1 DNP1        0.0000
     25 H2R         2.4780    7.0510   -4.3210 H         1 DNP1        0.0000
     26 H2S         2.0190    7.1720   -6.0600 H         1 DNP1        0.0000
     27 C3          3.7300    3.5350   -7.6320 C.3       1 DNP1        0.0000
     28 HX          2.6540    3.3650   -7.8580 H         1 DNP1        0.0000
     29 HY          4.2700    2.6000   -7.9060 H         1 DNP1        0.0000
     30 O31         4.1750    4.6840   -8.3870 O.3       1 DNP1        0.0000
     31 C31         5.4710    4.6980   -8.6970 C.2       1 DNP1        0.0000
     32 O32         6.2570    3.7950   -8.4980 O.2       1 DNP1        0.0000
     33 C32         5.7970    6.0320   -9.3770 C.3       1 DNP1        0.0000
     34 H2X         5.7470    6.8220   -8.5990 H         1 DNP1        0.0000
     35 H2Y         5.0120    6.2310  -10.1350 H         1 DNP1        0.0000
     36 C23         3.5830    8.5740   -5.4470 C.3       1 DNP1        0.0000
     37 H3R         4.0230    8.6910   -6.4640 H         1 DNP1        0.0000
     38 H3S         4.4210    8.6110   -4.7130 H         1 DNP1        0.0000
     39 C24         2.6300    9.7470   -5.1850 C.3       1 DNP1        0.0000
     40 H4R         2.1780    9.6300   -4.1740 H         1 DNP1        0.0000
     41 H4S         1.8040    9.7140   -5.9310 H         1 DNP1        0.0000
     42 C25         3.3270   11.1130   -5.2690 C.3       1 DNP1        0.0000
     43 H5R         3.8080   11.2130   -6.2680 H         1 DNP1        0.0000
     44 H5S         4.1300   11.1590   -4.5010 H         1 DNP1        0.0000
     45 C26         2.3560   12.2870   -5.0610 C.3       1 DNP1        0.0000
     46 H6R         1.8740   12.1860   -4.0630 H         1 DNP1        0.0000
     47 H6S         1.5550   12.2300   -5.8310 H         1 DNP1        0.0000
     48 C27         3.0450   13.6580   -5.1540 C.3       1 DNP1        0.0000
     49 H7R         3.5520   13.7390   -6.1420 H         1 DNP1        0.0000
     50 H7S         3.8280   13.7230   -4.3660 H         1 DNP1        0.0000
     51 C28         2.0710   14.8380   -4.9970 C.3       1 DNP1        0.0000
     52 H8R         1.5630   14.7620   -4.0100 H         1 DNP1        0.0000
     53 H8S         1.2900   14.7690   -5.7860 H         1 DNP1        0.0000
     54 C29         2.7650   16.2080   -5.1000 C.3       1 DNP1        0.0000
     55 H9R         3.2910   16.2730   -6.0790 H         1 DNP1        0.0000
     56 H9S         3.5320   16.2880   -4.2990 H         1 DNP1        0.0000
     57 C210        1.7880   17.3900   -4.9810 C.3       1 DNP1        0.0000
     58 H10R        1.2600   17.3300   -4.0030 H         1 DNP1        0.0000
     59 H10S        1.0220   17.3070   -5.7840 H         1 DNP1        0.0000
     60 C211        2.4800   18.7590   -5.0920 C.3       1 DNP1        0.0000
     61 H11R        3.0270   18.8100   -6.0600 H         1 DNP1        0.0000
     62 H11S        3.2290   18.8570   -4.2750 H         1 DNP1        0.0000
     63 C212        1.4970   19.9380   -5.0150 C.3       1 DNP1        0.0000
     64 H12R        0.9500   19.8960   -4.0460 H         1 DNP1        0.0000
     65 H12S        0.7460   19.8380   -5.8310 H         1 DNP1        0.0000
     66 C213        2.1900   21.3040   -5.1400 C.3       1 DNP1        0.0000
     67 H13R        2.7580   21.3270   -6.0970 H         1 DNP1        0.0000
     68 H13S        2.9220   21.4110   -4.3070 H         1 DNP1        0.0000
     69 C214        1.1950   22.4800   -5.1020 C.3       1 DNP1        0.0000
     70 H14R        0.6170   22.4040   -4.1540 H         1 DNP1        0.0000
     71 H14S        0.4670   22.3530   -5.9340 H         1 DNP1        0.0000
     72 C215        1.8960   23.8120   -5.2340 C.2       1 DNP1        0.0000
     73 H15R        2.5700   23.8910   -6.1010 H         1 DNP1        0.0000
     74 C216        1.7940   24.8620   -4.3970 C.2       1 DNP1        0.0000
     75 H16R        2.3810   25.7690   -4.6100 H         1 DNP1        0.0000
     76 C217        0.9260   24.9450   -3.1660 C.3       1 DNP1        0.0000
     77 H17R        0.0350   24.2820   -3.2500 H         1 DNP1        0.0000
     78 H17S        0.5340   25.9790   -3.0470 H         1 DNP1        0.0000
     79 C218        1.6920   24.5580   -1.8880 C.3       1 DNP1        0.0000
     80 H18R        2.5710   25.2300   -1.7580 H         1 DNP1        0.0000
     81 H18S        2.0720   23.5160   -1.9860 H         1 DNP1        0.0000
     82 C219        0.8120   24.6450   -0.6320 C.3       1 DNP1        0.0000
     83 H19R       -0.0690   23.9770   -0.7610 H         1 DNP1        0.0000
     84 H19S        0.4360   25.6860   -0.5220 H         1 DNP1        0.0000
     85 C220        1.5630   24.2420    0.6450 C.3       1 DNP1        0.0000
     86 H20R        2.4420   24.9120    0.7760 H         1 DNP1        0.0000
     87 H20S        1.9430   23.2030    0.5300 H         1 DNP1        0.0000
     88 C221        0.6810   24.3190    1.8980 C.3       1 DNP1        0.0000
     89 H21R       -0.1970   23.6480    1.7670 H         1 DNP1        0.0000
     90 H21S        0.2980   25.3580    2.0120 H         1 DNP1        0.0000
     91 C222        1.4320   23.9180    3.1760 C.3       1 DNP1        0.0000
     92 H22R        2.3110   24.5890    3.3070 H         1 DNP1        0.0000
     93 H22S        1.8130   22.8790    3.0640 H         1 DNP1        0.0000
     94 C223        0.5510   23.9970    4.4300 C.3       1 DNP1        0.0000
     95 H23R       -0.3280   23.3270    4.2920 H         1 DNP1        0.0000
     96 H23S        0.1650   25.0370    4.5310 H         1 DNP1        0.0000
     97 C224        1.2850   23.6060    5.7150 C.3       1 DNP1        0.0000
     98 H24R        2.1540   24.2780    5.8860 H         1 DNP1        0.0000
     99 H24S        1.6580   22.5610    5.6480 H         1 DNP1        0.0000
    100 H24T        0.6050   23.6810    6.5910 H         1 DNP1        0.0000
    101 C33         7.1900    6.0440  -10.0500 C.3       1 DNP1        0.0000
    102 H3X         7.2540    5.2140  -10.7900 H         1 DNP1        0.0000
    103 H3Y         7.9780    5.8720   -9.2820 H         1 DNP1        0.0000
    104 C34         7.4710    7.3720  -10.7720 C.3       1 DNP1        0.0000
    105 H4X         7.4430    8.2000  -10.0290 H         1 DNP1        0.0000
    106 H4Y         6.6620    7.5570  -11.5150 H         1 DNP1        0.0000
    107 C35         8.8240    7.3970  -11.5010 C.3       1 DNP1        0.0000
    108 H5X         8.8520    6.5680  -12.2420 H         1 DNP1        0.0000
    109 H5Y         9.6400    7.2200  -10.7650 H         1 DNP1        0.0000
    110 C36         9.0780    8.7290  -12.2270 C.3       1 DNP1        0.0000
    111 H6X         9.0700    9.5550  -11.4820 H         1 DNP1        0.0000
    112 H6Y         8.2450    8.9120  -12.9430 H         1 DNP1        0.0000
    113 C37        10.4080    8.7570  -12.9970 C.3       1 DNP1        0.0000
    114 H7X        10.4140    7.9250  -13.7360 H         1 DNP1        0.0000
    115 H7Y        11.2460    8.5840  -12.2850 H         1 DNP1        0.0000
    116 C38        10.6440   10.0830  -13.7390 C.3       1 DNP1        0.0000
    117 H8X        10.6720   10.9150  -13.0010 H         1 DNP1        0.0000
    118 H8Y         9.7870   10.2700  -14.4250 H         1 DNP1        0.0000
    119 C39        11.9450   10.0930  -14.5590 C.3       1 DNP1        0.0000
    120 H9X        11.9150    9.2570  -15.2930 H         1 DNP1        0.0000
    121 H9Y        12.8080    9.9160  -13.8790 H         1 DNP1        0.0000
    122 C310       12.1630   11.4130  -15.3160 C.3       1 DNP1        0.0000
    123 H10X       12.2200   12.2500  -14.5840 H         1 DNP1        0.0000
    124 H10Y       11.2850   11.6000  -15.9750 H         1 DNP1        0.0000
    125 C311       13.4350   11.4110  -16.1790 C.3       1 DNP1        0.0000
    126 H11X       13.3780   10.5670  -16.9020 H         1 DNP1        0.0000
    127 H11Y       14.3220   11.2400  -15.5280 H         1 DNP1        0.0000
    128 C312       13.6260   12.7210  -16.9580 C.3       1 DNP1        0.0000
    129 H12X       13.7330   13.5640  -16.2390 H         1 DNP1        0.0000
    130 H12Y       12.7170   12.9130  -17.5710 H         1 DNP1        0.0000
    131 C313       14.8500   12.6900  -17.8860 C.3       1 DNP1        0.0000
    132 H13X       14.7400   11.8290  -18.5840 H         1 DNP1        0.0000
    133 H13Y       15.7640   12.5160  -17.2730 H         1 DNP1        0.0000
    134 C314       15.0120   13.9930  -18.6910 C.3       1 DNP1        0.0000
    135 H14X       15.1230   14.8290  -17.9650 H         1 DNP1        0.0000
    136 H14Y       14.0700   14.1790  -19.2520 H         1 DNP1        0.0000
    137 C315       16.1700   13.9100  -19.6570 C.2       1 DNP1        0.0000
    138 H15X       16.0920   13.0900  -20.3870 H         1 DNP1        0.0000
    139 C316       17.2580   14.7030  -19.6980 C.2       1 DNP1        0.0000
    140 H16X       18.0260   14.5010  -20.4620 H         1 DNP1        0.0000
    141 C317       17.5700   15.8740  -18.7980 C.3       1 DNP1        0.0000
    142 H17X       16.6830   16.2040  -18.2140 H         1 DNP1        0.0000
    143 H17Y       17.8830   16.7480  -19.4120 H         1 DNP1        0.0000
    144 C318       18.6990   15.5440  -17.8060 C.3       1 DNP1        0.0000
    145 H18X       19.6140   15.2390  -18.3640 H         1 DNP1        0.0000
    146 H18Y       18.3910   14.6860  -17.1650 H         1 DNP1        0.0000
    147 C319       19.0510   16.7340  -16.9020 C.3       1 DNP1        0.0000
    148 H19X       18.1450   17.0350  -16.3290 H         1 DNP1        0.0000
    149 H19Y       19.3520   17.5970  -17.5380 H         1 DNP1        0.0000
    150 C320       20.1850   16.4120  -15.9200 C.3       1 DNP1        0.0000
    151 H20X       21.0890   16.1110  -16.4970 H         1 DNP1        0.0000
    152 H20Y       19.8840   15.5470  -15.2880 H         1 DNP1        0.0000
    153 C321       20.5410   17.5980  -15.0130 C.3       1 DNP1        0.0000
    154 H21X       19.6400   17.8920  -14.4290 H         1 DNP1        0.0000
    155 H21Y       20.8320   18.4660  -15.6460 H         1 DNP1        0.0000
    156 C322       21.6870   17.2770  -14.0440 C.3       1 DNP1        0.0000
    157 H22X       22.5870   16.9820  -14.6300 H         1 DNP1        0.0000
    158 H22Y       21.3970   16.4080  -13.4120 H         1 DNP1        0.0000
    159 C323       22.0460   18.4600  -13.1370 C.3       1 DNP1        0.0000
    160 H23X       21.1420   18.7510  -12.5530 H         1 DNP1        0.0000
    161 H23Y       22.3240   19.3290  -13.7750 H         1 DNP1        0.0000
    162 C324       23.1940   18.1590  -12.1690 C.3       1 DNP1        0.0000
    163 H24X       24.1150   17.8920  -12.7300 H         1 DNP1        0.0000
    164 H24Y       22.9300   17.3090  -11.5040 H         1 DNP1        0.0000
    165 H24Z       23.4140   19.0450  -11.5360 H         1 DNP1        0.0000
@<TRIPOS>BOND
     1  140  139 1 
     2  138  137 1 
     3  139  137 2 
     4  139  141 1 
     5  137  134 1 
     6  143  141 1 
     7  136  134 1 
     8  141  142 1 
     9  141  144 1 
    10  134  135 1 
    11  134  131 1 
    12  132  131 1 
    13  145  144 1 
    14  131  133 1 
    15  131  128 1 
    16  144  146 1 
    17  144  147 1 
    18  130  128 1 
    19  149  147 1 
    20  128  129 1 
    21  128  125 1 
    22  126  125 1 
    23  147  148 1 
    24  147  150 1 
    25  151  150 1 
    26  125  127 1 
    27  125  122 1 
    28  124  122 1 
    29  150  152 1 
    30  150  153 1 
    31  155  153 1 
    32  122  123 1 
    33  122  119 1 
    34  120  119 1 
    35  153  154 1 
    36  153  156 1 
    37  157  156 1 
    38  119  121 1 
    39  119  116 1 
    40  118  116 1 
    41  156  158 1 
    42  156  159 1 
    43  161  159 1 
    44  116  117 1 
    45  116  113 1 
    46  114  113 1 
    47  159  160 1 
    48  159  162 1 
    49  113  115 1 
    50  113  110 1 
    51  112  110 1 
    52  163  162 1 
    53  108  107 1 
    54  110  107 1 
    55  110  111 1 
    56  162  165 1 
    57  162  164 1 
    58  106  104 1 
    59  107  104 1 
    60  107  109 1 
    61  102  101 1 
    62  104  101 1 
    63  104  105 1 
    64   35   33 1 
    65  101   33 1 
    66  101  103 1 
    67   33   31 1 
    68   33   34 1 
    69   31   32 2 
    70   31   30 1 
    71   30   27 1 
    72   29   27 1 
    73   28   27 1 
    74   27   19 1 
    75   37   36 1 
    76   43   42 1 
    77   49   48 1 
    78   73   72 1 
    79   19   20 1 
    80   19   21 1 
    81   19   16 1 
    82   67   66 1 
    83   55   54 1 
    84   61   60 1 
    85   26   24 1 
    86   71   69 1 
    87   41   39 1 
    88   23   22 2 
    89   65   63 1 
    90   47   45 1 
    91   53   51 1 
    92   59   57 1 
    93   21   22 1 
    94   18   16 1 
    95   22   24 1 
    96   17   16 1 
    97   36   24 1 
    98   36   39 1 
    99   36   38 1 
   100   24   25 1 
   101   16   15 1 
   102   42   39 1 
   103   42   45 1 
   104   42   44 1 
   105   72   69 1 
   106   72   74 2 
   107   39   40 1 
   108   48   45 1 
   109   48   51 1 
   110   48   50 1 
   111   66   69 1 
   112   66   63 1 
   113   66   68 1 
   114   69   70 1 
   115   54   51 1 
   116   54   57 1 
   117   54   56 1 
   118   60   63 1 
   119   60   57 1 
   120   60   62 1 
   121   45   46 1 
   122   63   64 1 
   123   51   52 1 
   124   57   58 1 
   125   75   74 1 
   126   74   76 1 
   127   15   11 1 
   128   77   76 1 
   129   76   78 1 
   130   76   79 1 
   131   13   11 2 
   132   12   11 1 
   133   11   14 1 
   134   81   79 1 
   135   79   80 1 
   136   79   82 1 
   137    4    1 1 
   138   14    8 1 
   139    3    1 1 
   140   83   82 1 
   141    1    2 1 
   142    1    5 1 
   143   82   84 1 
   144   82   85 1 
   145    9    8 1 
   146    8    5 1 
   147    8   10 1 
   148    5    7 1 
   149    5    6 1 
   150   87   85 1 
   151   85   86 1 
   152   85   88 1 
   153   89   88 1 
   154   88   90 1 
   155   88   91 1 
   156   93   91 1 
   157   91   92 1 
   158   91   94 1 
   159   95   94 1 
   160   94   96 1 
   161   94   97 1 
   162   99   97 1 
   163   97   98 1 
   164   97  100 1 
