@<TRIPOS>MOLECULE
C:\Users\Praveer\PycharmProjects\pdb_to_mol2_converter\data\pdb\dnpg.pdb
  167   166     0     0     0
SMALL
GASTEIGER

@<TRIPOS>ATOM
      1 C13        -0.0950    0.0020    0.1980 C.3       1 DNP1        0.0000
      2 H13A       -0.5440    0.2050   -0.8010 H         1 DNP1        0.0000
      3 H13B       -0.4900   -0.9670    0.5720 H         1 DNP1        0.0000
      4 OC3        -0.4610    1.0630    1.0770 O.3       1 DNP1        0.0000
      5 HO3        -0.0500    1.8370    0.6570 H         1 DNP1        0.0000
      6 C12         1.4440   -0.0790    0.0500 C.3       1 DNP1        0.0000
      7 H12A        1.8590   -0.5780    0.9540 H         1 DNP1        0.0000
      8 OC2         1.7740   -0.8820   -1.0800 O.3       1 DNP1        0.0000
      9 HO2         1.5610   -0.3170   -1.8560 H         1 DNP1        0.0000
     10 C11         2.1130    1.3230   -0.0670 C.3       1 DNP1        0.0000
     11 H11A        3.1690    1.2150   -0.4150 H         1 DNP1        0.0000
     12 H11B        2.1680    1.7430    0.9630 H         1 DNP1        0.0000
     13 P           1.6050    2.2490   -2.4370 P.3       1 DNP1        0.0000
     14 O13         2.9960    2.6750   -2.6920 O.3       1 DNP1        0.0000
     15 O14         1.1840    0.9360   -2.9750 O.2       1 DNP1        0.0000
     16 O12         1.3450    2.2330   -0.8700 O.3       1 DNP1        0.0000
     17 O11         0.6180    3.3800   -2.9560 O.3       1 DNP1        0.0000
     18 C1          0.7110    3.7240   -4.3450 C.3       1 DNP1        0.0000
     19 HA          0.3960    2.8600   -4.9780 H         1 DNP1        0.0000
     20 HB          1.7560    4.0090   -4.6200 H         1 DNP1        0.0000
     21 C2         -0.2040    4.9290   -4.6880 C.3       1 DNP1        0.0000
     22 HS          0.1540    5.7860   -4.0680 H         1 DNP1        0.0000
     23 O21        -1.5650    4.5690   -4.3830 O.3       1 DNP1        0.0000
     24 C21        -2.3280    5.5630   -3.9730 C.2       1 DNP1        0.0000
     25 O22        -1.9970    6.7290   -3.8520 O.2       1 DNP1        0.0000
     26 C22        -3.7290    5.0200   -3.6940 C.3       1 DNP1        0.0000
     27 H2R        -3.6490    4.2650   -2.8860 H         1 DNP1        0.0000
     28 H2S        -4.0870    4.5170   -4.6160 H         1 DNP1        0.0000
     29 C3         -0.0720    5.3020   -6.1950 C.3       1 DNP1        0.0000
     30 HX         -0.3330    4.3870   -6.7720 H         1 DNP1        0.0000
     31 HY          0.9940    5.5330   -6.4240 H         1 DNP1        0.0000
     32 O31        -0.9760    6.3550   -6.5910 O.3       1 DNP1        0.0000
     33 C31        -0.5100    7.5910   -6.4360 C.2       1 DNP1        0.0000
     34 O32         0.6290    7.8870   -6.1230 O.2       1 DNP1        0.0000
     35 C32        -1.6350    8.5790   -6.7450 C.3       1 DNP1        0.0000
     36 H2X        -2.3600    8.5270   -5.9050 H         1 DNP1        0.0000
     37 H2Y        -2.1430    8.2450   -7.6720 H         1 DNP1        0.0000
     38 C23        -4.7140    6.1390   -3.2870 C.3       1 DNP1        0.0000
     39 H3R        -4.7200    6.9340   -4.0670 H         1 DNP1        0.0000
     40 H3S        -4.3760    6.6080   -2.3340 H         1 DNP1        0.0000
     41 C24        -6.1450    5.6170   -3.1130 C.3       1 DNP1        0.0000
     42 H4R        -6.1570    4.8260   -2.3290 H         1 DNP1        0.0000
     43 H4S        -6.4790    5.1520   -4.0680 H         1 DNP1        0.0000
     44 C25        -7.1330    6.7250   -2.7270 C.3       1 DNP1        0.0000
     45 H5R        -7.0810    7.5380   -3.4860 H         1 DNP1        0.0000
     46 H5S        -6.8330    7.1590   -1.7470 H         1 DNP1        0.0000
     47 C26        -8.5800    6.2210   -2.6380 C.3       1 DNP1        0.0000
     48 H6R        -8.6400    5.4100   -1.8780 H         1 DNP1        0.0000
     49 H6S        -8.8720    5.7870   -3.6200 H         1 DNP1        0.0000
     50 C27        -9.5710    7.3340   -2.2690 C.3       1 DNP1        0.0000
     51 H7R        -9.4840    8.1580   -3.0120 H         1 DNP1        0.0000
     52 H7S        -9.3000    7.7480   -1.2720 H         1 DNP1        0.0000
     53 C28       -11.0250    6.8450   -2.2350 C.3       1 DNP1        0.0000
     54 H8R       -11.1170    6.0200   -1.4930 H         1 DNP1        0.0000
     55 H8S       -11.2920    6.4320   -3.2340 H         1 DNP1        0.0000
     56 C29       -12.0130    7.9620   -1.8740 C.3       1 DNP1        0.0000
     57 H9R       -11.9080    8.7910   -2.6100 H         1 DNP1        0.0000
     58 H9S       -11.7550    8.3660   -0.8700 H         1 DNP1        0.0000
     59 C210      -13.4710    7.4840   -1.8650 C.3       1 DNP1        0.0000
     60 H10R      -13.5800    6.6550   -1.1300 H         1 DNP1        0.0000
     61 H10S      -13.7270    7.0800   -2.8710 H         1 DNP1        0.0000
     62 C211      -14.4580    8.6040   -1.5100 C.3       1 DNP1        0.0000
     63 H11R      -14.3380    9.4380   -2.2380 H         1 DNP1        0.0000
     64 H11S      -14.2130    9.0000   -0.4990 H         1 DNP1        0.0000
     65 C212      -15.9190    8.1330   -1.5270 C.3       1 DNP1        0.0000
     66 H12R      -16.0450    7.3030   -0.7970 H         1 DNP1        0.0000
     67 H12S      -16.1580    7.7340   -2.5380 H         1 DNP1        0.0000
     68 C213      -16.9070    9.2580   -1.1860 C.3       1 DNP1        0.0000
     69 H13R      -16.7480   10.0980   -1.8990 H         1 DNP1        0.0000
     70 H13S      -16.6820    9.6330   -0.1620 H         1 DNP1        0.0000
     71 C214      -18.3730    8.7910   -1.2540 C.3       1 DNP1        0.0000
     72 H14R      -18.4860    7.9290   -0.5590 H         1 DNP1        0.0000
     73 H14S      -18.5730    8.4080   -2.2800 H         1 DNP1        0.0000
     74 C215      -19.3290    9.9140   -0.9290 C.2       1 DNP1        0.0000
     75 H15R      -19.1720   10.8340   -1.5140 H         1 DNP1        0.0000
     76 C216      -20.3000    9.8980    0.0030 C.2       1 DNP1        0.0000
     77 H16R      -20.9140   10.8020    0.1450 H         1 DNP1        0.0000
     78 C217      -20.6650    8.7380    0.8960 C.3       1 DNP1        0.0000
     79 H17R      -20.4140    7.7630    0.4200 H         1 DNP1        0.0000
     80 H17S      -21.7640    8.7240    1.0700 H         1 DNP1        0.0000
     81 C218      -19.9510    8.8060    2.2570 C.3       1 DNP1        0.0000
     82 H18R      -20.2180    9.7540    2.7760 H         1 DNP1        0.0000
     83 H18S      -18.8480    8.8060    2.0960 H         1 DNP1        0.0000
     84 C219      -20.3140    7.6230    3.1660 C.3       1 DNP1        0.0000
     85 H19R      -20.0470    6.6740    2.6500 H         1 DNP1        0.0000
     86 H19S      -21.4140    7.6180    3.3360 H         1 DNP1        0.0000
     87 C220      -19.5950    7.6750    4.5210 C.3       1 DNP1        0.0000
     88 H20R      -19.8630    8.6240    5.0390 H         1 DNP1        0.0000
     89 H20S      -18.4960    7.6810    4.3500 H         1 DNP1        0.0000
     90 C221      -19.9570    6.4900    5.4260 C.3       1 DNP1        0.0000
     91 H21R      -19.6870    5.5420    4.9100 H         1 DNP1        0.0000
     92 H21S      -21.0570    6.4820    5.5940 H         1 DNP1        0.0000
     93 C222      -19.2430    6.5430    6.7840 C.3       1 DNP1        0.0000
     94 H22R      -19.5120    7.4920    7.3000 H         1 DNP1        0.0000
     95 H22S      -18.1430    6.5480    6.6180 H         1 DNP1        0.0000
     96 C223      -19.6080    5.3610    7.6910 C.3       1 DNP1        0.0000
     97 H23R      -19.3410    4.4130    7.1690 H         1 DNP1        0.0000
     98 H23S      -20.7110    5.3560    7.8470 H         1 DNP1        0.0000
     99 C224      -18.9080    5.4010    9.0520 C.3       1 DNP1        0.0000
    100 H24R      -19.1800    6.3280    9.6010 H         1 DNP1        0.0000
    101 H24S      -17.8050    5.3810    8.9220 H         1 DNP1        0.0000
    102 H24T      -19.2050    4.5270    9.6700 H         1 DNP1        0.0000
    103 C33        -1.1330   10.0300   -6.9140 C.3       1 DNP1        0.0000
    104 H3X        -0.3770   10.0710   -7.7320 H         1 DNP1        0.0000
    105 H3Y        -0.6340   10.3680   -5.9770 H         1 DNP1        0.0000
    106 C34        -2.2790   10.9940   -7.2490 C.3       1 DNP1        0.0000
    107 H4X        -3.0130   10.9940   -6.4120 H         1 DNP1        0.0000
    108 H4Y        -2.8050   10.6290   -8.1600 H         1 DNP1        0.0000
    109 C35        -1.8010   12.4310   -7.5000 C.3       1 DNP1        0.0000
    110 H5X        -1.0610   12.4280   -8.3310 H         1 DNP1        0.0000
    111 H5Y        -1.2860   12.8120   -6.5900 H         1 DNP1        0.0000
    112 C36        -2.9560   13.3750   -7.8620 C.3       1 DNP1        0.0000
    113 H6X        -3.6840   13.4010   -7.0210 H         1 DNP1        0.0000
    114 H6Y        -3.4860   12.9710   -8.7550 H         1 DNP1        0.0000
    115 C37        -2.4870   14.8040   -8.1690 C.3       1 DNP1        0.0000
    116 H7X        -1.7530   14.7730   -9.0060 H         1 DNP1        0.0000
    117 H7Y        -1.9660   15.2180   -7.2770 H         1 DNP1        0.0000
    118 C38        -3.6470   15.7320   -8.5540 C.3       1 DNP1        0.0000
    119 H8X        -4.3740   15.7770   -7.7130 H         1 DNP1        0.0000
    120 H8Y        -4.1760   15.3030   -9.4350 H         1 DNP1        0.0000
    121 C39        -3.1820   17.1540   -8.8970 C.3       1 DNP1        0.0000
    122 H9X        -2.4500   17.1030   -9.7350 H         1 DNP1        0.0000
    123 H9Y        -2.6610   17.5930   -8.0180 H         1 DNP1        0.0000
    124 C310       -4.3440   18.0700   -9.3050 C.3       1 DNP1        0.0000
    125 H10X       -5.0650   18.1470   -8.4600 H         1 DNP1        0.0000
    126 H10Y       -4.8810   17.6110  -10.1660 H         1 DNP1        0.0000
    127 C311       -3.8800   19.4770   -9.7030 C.3       1 DNP1        0.0000
    128 H11X       -3.1530   19.3920  -10.5430 H         1 DNP1        0.0000
    129 H11Y       -3.3520   19.9490   -8.8450 H         1 DNP1        0.0000
    130 C312       -5.0420   20.3790  -10.1410 C.3       1 DNP1        0.0000
    131 H12X       -5.7480   20.5070   -9.2900 H         1 DNP1        0.0000
    132 H12Y       -5.5960   19.8770  -10.9670 H         1 DNP1        0.0000
    133 C313       -4.5740   21.7580  -10.6250 C.3       1 DNP1        0.0000
    134 H13X       -3.8550   21.6110  -11.4620 H         1 DNP1        0.0000
    135 H13Y       -4.0320   22.2680   -9.7960 H         1 DNP1        0.0000
    136 C314       -5.7450   22.6420  -11.0940 C.3       1 DNP1        0.0000
    137 H14X       -6.4370   22.7720  -10.2320 H         1 DNP1        0.0000
    138 H14Y       -6.3100   22.0890  -11.8770 H         1 DNP1        0.0000
    139 C315       -5.2600   23.9590  -11.6510 C.2       1 DNP1        0.0000
    140 H15X       -4.5680   23.8620  -12.5010 H         1 DNP1        0.0000
    141 C316       -5.5680   25.1950  -11.2130 C.2       1 DNP1        0.0000
    142 H16X       -5.1180   26.0600  -11.7240 H         1 DNP1        0.0000
    143 C317       -6.4850   25.5570  -10.0690 C.3       1 DNP1        0.0000
    144 H17X       -7.1150   24.6980   -9.7470 H         1 DNP1        0.0000
    145 H17Y       -7.1880   26.3570  -10.3900 H         1 DNP1        0.0000
    146 C318       -5.6960   26.0580   -8.8470 C.3       1 DNP1        0.0000
    147 H18X       -5.0820   26.9420   -9.1310 H         1 DNP1        0.0000
    148 H18Y       -5.0020   25.2590   -8.5000 H         1 DNP1        0.0000
    149 C319       -6.6130   26.4530   -7.6800 C.3       1 DNP1        0.0000
    150 H19X       -7.2170   25.5690   -7.3760 H         1 DNP1        0.0000
    151 H19Y       -7.3180   27.2440   -8.0220 H         1 DNP1        0.0000
    152 C320       -5.8310   26.9700   -6.4650 C.3       1 DNP1        0.0000
    153 H20X       -5.2280   27.8540   -6.7720 H         1 DNP1        0.0000
    154 H20Y       -5.1250   26.1810   -6.1230 H         1 DNP1        0.0000
    155 C321       -6.7450   27.3680   -5.2990 C.3       1 DNP1        0.0000
    156 H21X       -7.3410   26.4820   -4.9840 H         1 DNP1        0.0000
    157 H21Y       -7.4580   28.1500   -5.6450 H         1 DNP1        0.0000
    158 C322       -5.9630   27.9040   -4.0920 C.3       1 DNP1        0.0000
    159 H22X       -5.3670   28.7890   -4.4080 H         1 DNP1        0.0000
    160 H22Y       -5.2490   27.1230   -3.7450 H         1 DNP1        0.0000
    161 C323       -6.8740   28.3040   -2.9250 C.3       1 DNP1        0.0000
    162 H23X       -7.4680   27.4150   -2.6120 H         1 DNP1        0.0000
    163 H23Y       -7.5930   29.0770   -3.2800 H         1 DNP1        0.0000
    164 C324       -6.1070   28.8480   -1.7160 C.3       1 DNP1        0.0000
    165 H24X       -5.5270   29.7520   -2.0000 H         1 DNP1        0.0000
    166 H24Y       -5.3990   28.0840   -1.3290 H         1 DNP1        0.0000
    167 H24Z       -6.8090   29.1230   -0.9000 H         1 DNP1        0.0000
@<TRIPOS>BOND
     1  140  139 1 
     2  138  136 1 
     3  142  141 1 
     4  139  141 2 
     5  139  136 1 
     6  134  133 1 
     7  141  143 1 
     8  136  133 1 
     9  136  137 1 
    10  132  130 1 
    11  133  130 1 
    12  133  135 1 
    13  128  127 1 
    14  145  143 1 
    15  126  124 1 
    16  130  127 1 
    17  130  131 1 
    18  143  144 1 
    19  143  146 1 
    20  122  121 1 
    21  127  124 1 
    22  127  129 1 
    23  120  118 1 
    24  124  121 1 
    25  124  125 1 
    26  147  146 1 
    27  116  115 1 
    28  121  118 1 
    29  121  123 1 
    30  146  148 1 
    31  146  149 1 
    32  114  112 1 
    33  118  115 1 
    34  118  119 1 
    35  110  109 1 
    36  115  112 1 
    37  115  117 1 
    38  108  106 1 
    39  151  149 1 
    40  112  109 1 
    41  112  113 1 
    42  104  103 1 
    43  149  150 1 
    44  149  152 1 
    45   37   35 1 
    46  109  106 1 
    47  109  111 1 
    48  106  103 1 
    49  106  107 1 
    50  103   35 1 
    51  103  105 1 
    52   30   29 1 
    53  153  152 1 
    54   35   33 1 
    55   35   36 1 
    56   32   33 1 
    57   32   29 1 
    58  152  154 1 
    59  152  155 1 
    60   33   34 2 
    61   31   29 1 
    62   29   21 1 
    63  157  155 1 
    64  155  156 1 
    65  155  158 1 
    66   19   18 1 
    67   21   23 1 
    68   21   18 1 
    69   21   22 1 
    70   20   18 1 
    71   28   26 1 
    72  159  158 1 
    73   23   24 1 
    74   18   17 1 
    75  158  160 1 
    76  158  161 1 
    77   43   41 1 
    78   39   38 1 
    79   24   25 2 
    80   24   26 1 
    81   26   38 1 
    82   26   27 1 
    83   49   47 1 
    84   45   44 1 
    85   38   41 1 
    86   38   40 1 
    87  163  161 1 
    88   55   53 1 
    89   41   44 1 
    90   41   42 1 
    91   51   50 1 
    92   15   13 2 
    93   17   13 1 
    94  161  162 1 
    95  161  164 1 
    96   61   59 1 
    97   44   47 1 
    98   44   46 1 
    99   14   13 1 
   100   47   50 1 
   101   47   48 1 
   102   57   56 1 
   103   67   65 1 
   104   13   16 1 
   105   73   71 1 
   106   50   53 1 
   107   50   52 1 
   108   63   62 1 
   109   53   56 1 
   110   53   54 1 
   111  165  164 1 
   112   69   68 1 
   113   56   59 1 
   114   56   58 1 
   115   59   62 1 
   116   59   60 1 
   117    9    8 1 
   118  164  166 1 
   119  164  167 1 
   120   65   62 1 
   121   65   68 1 
   122   65   66 1 
   123   75   74 1 
   124   62   64 1 
   125   71   68 1 
   126   71   74 1 
   127   71   72 1 
   128   68   70 1 
   129    8    6 1 
   130   74   76 2 
   131   16   10 1 
   132    2    1 1 
   133   11   10 1 
   134   10    6 1 
   135   10   12 1 
   136   76   77 1 
   137   76   78 1 
   138    6    1 1 
   139    6    7 1 
   140    1    3 1 
   141    1    4 1 
   142   79   78 1 
   143    5    4 1 
   144   78   80 1 
   145   78   81 1 
   146   83   81 1 
   147   81   82 1 
   148   81   84 1 
   149   85   84 1 
   150   84   86 1 
   151   84   87 1 
   152   89   87 1 
   153   87   88 1 
   154   87   90 1 
   155   91   90 1 
   156   90   92 1 
   157   90   93 1 
   158   95   93 1 
   159   93   94 1 
   160   93   96 1 
   161   97   96 1 
   162   96   98 1 
   163   96   99 1 
   164  101   99 1 
   165   99  100 1 
   166   99  102 1 
