@<TRIPOS>MOLECULE
C:\Users\Praveer\PycharmProjects\pdb_to_mol2_converter\data\pdb\dnps.pdb
  167   166     0     0     0
SMALL
GASTEIGER

@<TRIPOS>ATOM
      1 N           0.0370   -0.2850   -0.2230 N.4       1 DNP1        0.0000
      2 HN1        -0.4120    0.1440    0.6320 H         1 DNP1        0.0000
      3 HN2        -0.1670   -1.2920   -0.3360 H         1 DNP1        0.0000
      4 HN3        -0.2680    0.2150   -1.0790 H         1 DNP1        0.0000
      5 C12         1.5180   -0.1130   -0.1290 C.3       1 DNP1        0.0000
      6 H12A        1.8660   -0.6470    0.7410 H         1 DNP1        0.0000
      7 C13         2.2110   -0.7510   -1.3520 C.2       1 DNP1        0.0000
      8 O13A        1.4960   -1.3920   -2.1730 O.co2     1 DNP1        0.0000
      9 O13B        3.4660   -0.7990   -1.3370 O.co2     1 DNP1        0.0000
     10 C11         1.8860    1.4030    0.0070 C.3       1 DNP1        0.0000
     11 H11A        1.5140    1.9720   -0.8760 H         1 DNP1        0.0000
     12 H11B        2.9980    1.4720   -0.0340 H         1 DNP1        0.0000
     13 P          -0.0290    2.4750    1.4670 P.3       1 DNP1        0.0000
     14 O13        -0.4660    3.2230    0.2720 O.2       1 DNP1        0.0000
     15 O14        -0.8150    1.2550    1.7770 O.3       1 DNP1        0.0000
     16 O12         1.4570    1.9850    1.2470 O.3       1 DNP1        0.0000
     17 O11         0.0430    3.4300    2.7230 O.3       1 DNP1        0.0000
     18 C1         -1.0860    4.2830    2.9560 C.3       1 DNP1        0.0000
     19 HA         -2.0400    3.7010    2.9620 H         1 DNP1        0.0000
     20 HB         -1.1490    5.0630    2.1620 H         1 DNP1        0.0000
     21 C2         -0.9710    4.9940    4.3290 C.3       1 DNP1        0.0000
     22 HS         -0.1030    5.6920    4.2530 H         1 DNP1        0.0000
     23 O21        -0.7740    3.9920    5.3440 O.3       1 DNP1        0.0000
     24 C21        -0.0340    4.3720    6.3660 C.2       1 DNP1        0.0000
     25 O22         0.4830    5.4630    6.5220 O.2       1 DNP1        0.0000
     26 C22         0.0490    3.2140    7.3590 C.3       1 DNP1        0.0000
     27 H2R         0.5230    2.3540    6.8420 H         1 DNP1        0.0000
     28 H2S        -0.9880    2.9350    7.6380 H         1 DNP1        0.0000
     29 C3         -2.2600    5.8110    4.6350 C.3       1 DNP1        0.0000
     30 HX         -3.1030    5.0840    4.6280 H         1 DNP1        0.0000
     31 HY         -2.4500    6.5350    3.8090 H         1 DNP1        0.0000
     32 O31        -2.2240    6.4370    5.9340 O.3       1 DNP1        0.0000
     33 C31        -1.6460    7.6340    5.9660 C.2       1 DNP1        0.0000
     34 O32        -1.2770    8.2700    4.9950 O.2       1 DNP1        0.0000
     35 C32        -1.5520    8.0880    7.4230 C.3       1 DNP1        0.0000
     36 H2X        -0.7880    7.4520    7.9180 H         1 DNP1        0.0000
     37 H2Y        -2.5340    7.9050    7.9050 H         1 DNP1        0.0000
     38 C23         0.8510    3.5880    8.6240 C.3       1 DNP1        0.0000
     39 H3R         0.4170    4.5060    9.0840 H         1 DNP1        0.0000
     40 H3S         1.9050    3.8190    8.3470 H         1 DNP1        0.0000
     41 C24         0.8320    2.4620    9.6660 C.3       1 DNP1        0.0000
     42 H4R         1.2630    1.5400    9.2170 H         1 DNP1        0.0000
     43 H4S        -0.2260    2.2450    9.9380 H         1 DNP1        0.0000
     44 C25         1.6110    2.8240   10.9360 C.3       1 DNP1        0.0000
     45 H5R         1.2060    3.7750   11.3480 H         1 DNP1        0.0000
     46 H5S         2.6790    2.9970   10.6720 H         1 DNP1        0.0000
     47 C26         1.5290    1.7420   12.0230 C.3       1 DNP1        0.0000
     48 H6R         1.9380    0.7860   11.6260 H         1 DNP1        0.0000
     49 H6S         0.4610    1.5710   12.2850 H         1 DNP1        0.0000
     50 C27         2.2990    2.1380   13.2910 C.3       1 DNP1        0.0000
     51 H7R         1.9000    3.1070   13.6670 H         1 DNP1        0.0000
     52 H7S         3.3710    2.2910   13.0330 H         1 DNP1        0.0000
     53 C28         2.1930    1.0900   14.4070 C.3       1 DNP1        0.0000
     54 H8R         2.5890    0.1180   14.0360 H         1 DNP1        0.0000
     55 H8S         1.1200    0.9430   14.6650 H         1 DNP1        0.0000
     56 C29         2.9610    1.4960   15.6720 C.3       1 DNP1        0.0000
     57 H9R         2.5780    2.4790   16.0290 H         1 DNP1        0.0000
     58 H9S         4.0380    1.6250   15.4210 H         1 DNP1        0.0000
     59 C210        2.8250    0.4670   16.8030 C.3       1 DNP1        0.0000
     60 H10R        3.2040   -0.5180   16.4480 H         1 DNP1        0.0000
     61 H10S        1.7470    0.3450   17.0520 H         1 DNP1        0.0000
     62 C211        3.5880    0.8730   18.0710 C.3       1 DNP1        0.0000
     63 H11R        3.2280    1.8710   18.4070 H         1 DNP1        0.0000
     64 H11S        4.6720    0.9660   17.8330 H         1 DNP1        0.0000
     65 C212        3.4080   -0.1330   19.2170 C.3       1 DNP1        0.0000
     66 H12R        3.7720   -1.1320   18.8880 H         1 DNP1        0.0000
     67 H12S        2.3240   -0.2270   19.4490 H         1 DNP1        0.0000
     68 C213        4.1580    0.2810   20.4920 C.3       1 DNP1        0.0000
     69 H13R        3.8060    1.2910   20.7990 H         1 DNP1        0.0000
     70 H13S        5.2450    0.3540   20.2580 H         1 DNP1        0.0000
     71 C214        3.9450   -0.7160   21.6460 C.3       1 DNP1        0.0000
     72 H14R        4.2630   -1.7210   21.2870 H         1 DNP1        0.0000
     73 H14S        2.8540   -0.7790   21.8600 H         1 DNP1        0.0000
     74 C215        4.6900   -0.2940   22.8890 C.2       1 DNP1        0.0000
     75 H15R        4.4920    0.7400   23.2130 H         1 DNP1        0.0000
     76 C216        5.5700   -1.0330   23.5900 C.2       1 DNP1        0.0000
     77 H16R        6.0540   -0.5860   24.4720 H         1 DNP1        0.0000
     78 C217        5.9710   -2.4600   23.3030 C.3       1 DNP1        0.0000
     79 H17R        5.1650   -3.0110   22.7690 H         1 DNP1        0.0000
     80 H17S        6.1420   -3.0040   24.2580 H         1 DNP1        0.0000
     81 C218        7.2520   -2.5420   22.4530 C.3       1 DNP1        0.0000
     82 H18R        8.0870   -2.0240   22.9760 H         1 DNP1        0.0000
     83 H18S        7.0840   -2.0200   21.4820 H         1 DNP1        0.0000
     84 C219        7.6690   -3.9910   22.1660 C.3       1 DNP1        0.0000
     85 H19R        6.8350   -4.5120   21.6440 H         1 DNP1        0.0000
     86 H19S        7.8470   -4.5180   23.1300 H         1 DNP1        0.0000
     87 C220        8.9350   -4.0810   21.3020 C.3       1 DNP1        0.0000
     88 H20R        9.7700   -3.5650   21.8260 H         1 DNP1        0.0000
     89 H20S        8.7570   -3.5480   20.3410 H         1 DNP1        0.0000
     90 C221        9.3450   -5.5300   21.0050 C.3       1 DNP1        0.0000
     91 H21R        8.5080   -6.0440   20.4810 H         1 DNP1        0.0000
     92 H21S        9.5200   -6.0630   21.9670 H         1 DNP1        0.0000
     93 C222       10.6110   -5.6240   20.1430 C.3       1 DNP1        0.0000
     94 H22R       11.4480   -5.1090   20.6660 H         1 DNP1        0.0000
     95 H22S       10.4370   -5.0930   19.1800 H         1 DNP1        0.0000
     96 C223       11.0200   -7.0730   19.8490 C.3       1 DNP1        0.0000
     97 H23R       10.1790   -7.5840   19.3270 H         1 DNP1        0.0000
     98 H23S       11.1840   -7.6020   20.8160 H         1 DNP1        0.0000
     99 C224       12.2850   -7.1850   18.9940 C.3       1 DNP1        0.0000
    100 H24R       13.1450   -6.7020   19.5070 H         1 DNP1        0.0000
    101 H24S       12.1370   -6.6860   18.0120 H         1 DNP1        0.0000
    102 H24T       12.5390   -8.2520   18.8120 H         1 DNP1        0.0000
    103 C33        -1.1680    9.5780    7.5610 C.3       1 DNP1        0.0000
    104 H3X        -1.9220   10.2060    7.0350 H         1 DNP1        0.0000
    105 H3Y        -0.1810    9.7590    7.0770 H         1 DNP1        0.0000
    106 C34        -1.0960   10.0150    9.0300 C.3       1 DNP1        0.0000
    107 H4X        -0.3070    9.4240    9.5490 H         1 DNP1        0.0000
    108 H4Y        -2.0680    9.7880    9.5240 H         1 DNP1        0.0000
    109 C35        -0.7970   11.5100    9.2000 C.3       1 DNP1        0.0000
    110 H5X        -1.5800   12.1000    8.6740 H         1 DNP1        0.0000
    111 H5Y         0.1820   11.7480    8.7260 H         1 DNP1        0.0000
    112 C36        -0.7620   11.9290   10.6750 C.3       1 DNP1        0.0000
    113 H6X         0.0310   11.3530   11.2020 H         1 DNP1        0.0000
    114 H6Y        -1.7370   11.6690   11.1470 H         1 DNP1        0.0000
    115 C37        -0.5070   13.4290   10.8630 C.3       1 DNP1        0.0000
    116 H7X        -1.3000   14.0010   10.3310 H         1 DNP1        0.0000
    117 H7Y         0.4710   13.6980   10.4030 H         1 DNP1        0.0000
    118 C38        -0.5020   13.8390   12.3410 C.3       1 DNP1        0.0000
    119 H8X         0.3180   13.3010   12.8680 H         1 DNP1        0.0000
    120 H8Y        -1.4640   13.5260   12.8060 H         1 DNP1        0.0000
    121 C39        -0.3240   15.3490   12.5380 C.3       1 DNP1        0.0000
    122 H9X        -1.1480   15.8820   12.0100 H         1 DNP1        0.0000
    123 H9Y         0.6370   15.6710   12.0780 H         1 DNP1        0.0000
    124 C310       -0.3380   15.7500   14.0180 C.3       1 DNP1        0.0000
    125 H10X        0.4920   15.2310   14.5470 H         1 DNP1        0.0000
    126 H10Y       -1.2950   15.4100   14.4750 H         1 DNP1        0.0000
    127 C311       -0.2020   17.2630   14.2220 C.3       1 DNP1        0.0000
    128 H11X       -1.0310   17.7750   13.6820 H         1 DNP1        0.0000
    129 H11Y        0.7570   17.6120   13.7780 H         1 DNP1        0.0000
    130 C312       -0.2520   17.6630   15.7020 C.3       1 DNP1        0.0000
    131 H12X        0.6030   17.1950   16.2400 H         1 DNP1        0.0000
    132 H12Y       -1.1910   17.2670   16.1510 H         1 DNP1        0.0000
    133 C313       -0.2090   19.1830   15.9010 C.3       1 DNP1        0.0000
    134 H13X       -1.0560   19.6360   15.3370 H         1 DNP1        0.0000
    135 H13Y        0.7380   19.5770   15.4670 H         1 DNP1        0.0000
    136 C314       -0.3020   19.5790   17.3850 C.3       1 DNP1        0.0000
    137 H14X        0.5520   19.1040   17.9170 H         1 DNP1        0.0000
    138 H14Y       -1.2300   19.1360   17.8100 H         1 DNP1        0.0000
    139 C315       -0.3270   21.0790   17.5540 C.2       1 DNP1        0.0000
    140 H15X       -1.1620   21.5770   17.0370 H         1 DNP1        0.0000
    141 C316        0.5520   21.8390   18.2340 C.2       1 DNP1        0.0000
    142 H16X        0.4000   22.9290   18.2500 H         1 DNP1        0.0000
    143 C317        1.7630   21.3690   19.0030 C.3       1 DNP1        0.0000
    144 H17X        1.7550   20.2700   19.1730 H         1 DNP1        0.0000
    145 H17Y        1.7750   21.8410   20.0110 H         1 DNP1        0.0000
    146 C318        3.0700   21.7310   18.2770 C.3       1 DNP1        0.0000
    147 H18X        3.1210   22.8320   18.1180 H         1 DNP1        0.0000
    148 H18Y        3.0860   21.2410   17.2760 H         1 DNP1        0.0000
    149 C319        4.3150   21.2910   19.0600 C.3       1 DNP1        0.0000
    150 H19X        4.2810   20.1880   19.2090 H         1 DNP1        0.0000
    151 H19Y        4.3020   21.7690   20.0650 H         1 DNP1        0.0000
    152 C320        5.6210   21.6630   18.3440 C.3       1 DNP1        0.0000
    153 H20X        5.6510   22.7660   18.1970 H         1 DNP1        0.0000
    154 H20Y        5.6320   21.1870   17.3380 H         1 DNP1        0.0000
    155 C321        6.8690   21.2270   19.1230 C.3       1 DNP1        0.0000
    156 H21X        6.8440   20.1220   19.2610 H         1 DNP1        0.0000
    157 H21Y        6.8510   21.6950   20.1320 H         1 DNP1        0.0000
    158 C322        8.1740   21.6150   18.4140 C.3       1 DNP1        0.0000
    159 H22X        8.1990   22.7200   18.2760 H         1 DNP1        0.0000
    160 H22Y        8.1940   21.1490   17.4030 H         1 DNP1        0.0000
    161 C323        9.4230   21.1810   19.1910 C.3       1 DNP1        0.0000
    162 H23X        9.3940   20.0750   19.3260 H         1 DNP1        0.0000
    163 H23Y        9.3930   21.6420   20.2040 H         1 DNP1        0.0000
    164 C324       10.7330   21.5690   18.5000 C.3       1 DNP1        0.0000
    165 H24X       10.7960   22.6720   18.3780 H         1 DNP1        0.0000
    166 H24Y       10.7960   21.1010   17.4950 H         1 DNP1        0.0000
    167 H24Z       11.6060   21.2320   19.1010 H         1 DNP1        0.0000
@<TRIPOS>BOND
     1    8    7 ar
     2    7    9 ar
     3    7    5 1 
     4    4    1 1 
     5   11   10 1 
     6    3    1 1 
     7    1    5 1 
     8    1    2 1 
     9    5   10 1 
    10    5    6 1 
    11   12   10 1 
    12   10   16 1 
    13   14   13 2 
    14   16   13 1 
    15   13   15 1 
    16   13   17 1 
    17   20   18 1 
    18   17   18 1 
    19   18   19 1 
    20   18   21 1 
    21   31   29 1 
    22   22   21 1 
    23   21   29 1 
    24   21   23 1 
    25   30   29 1 
    26   29   32 1 
    27   34   33 2 
    28   23   24 1 
    29   32   33 1 
    30   33   35 1 
    31   24   25 2 
    32   24   26 1 
    33   27   26 1 
    34  104  103 1 
    35  105  103 1 
    36   26   28 1 
    37   26   38 1 
    38   35  103 1 
    39   35   37 1 
    40   35   36 1 
    41  103  106 1 
    42   40   38 1 
    43   38   39 1 
    44   38   41 1 
    45  110  109 1 
    46  111  109 1 
    47  106  109 1 
    48  106  108 1 
    49  106  107 1 
    50  109  112 1 
    51   42   41 1 
    52   41   43 1 
    53   41   44 1 
    54  116  115 1 
    55  117  115 1 
    56   46   44 1 
    57  112  115 1 
    58  112  114 1 
    59  112  113 1 
    60  115  118 1 
    61   44   45 1 
    62   44   47 1 
    63   48   47 1 
    64  122  121 1 
    65   47   49 1 
    66   47   50 1 
    67  123  121 1 
    68  118  121 1 
    69  118  120 1 
    70  118  119 1 
    71  121  124 1 
    72   52   50 1 
    73   50   51 1 
    74   50   53 1 
    75  128  127 1 
    76  129  127 1 
    77  124  127 1 
    78  124  126 1 
    79  124  125 1 
    80   54   53 1 
    81  127  130 1 
    82   53   55 1 
    83   53   56 1 
    84  134  133 1 
    85   58   56 1 
    86  135  133 1 
    87   56   57 1 
    88   56   59 1 
    89  130  133 1 
    90  130  132 1 
    91  130  131 1 
    92  133  136 1 
    93   60   59 1 
    94   59   61 1 
    95   59   62 1 
    96  140  139 1 
    97  148  146 1 
    98  154  152 1 
    99  136  139 1 
   100  136  138 1 
   101  136  137 1 
   102  160  158 1 
   103  166  164 1 
   104  139  141 2 
   105   64   62 1 
   106  101   99 1 
   107   62   63 1 
   108   62   65 1 
   109  147  146 1 
   110  153  152 1 
   111  141  142 1 
   112  141  143 1 
   113  159  158 1 
   114  146  143 1 
   115  146  149 1 
   116  152  149 1 
   117  152  155 1 
   118  165  164 1 
   119  158  155 1 
   120  158  161 1 
   121  164  167 1 
   122  164  161 1 
   123  102   99 1 
   124   66   65 1 
   125   99  100 1 
   126   99   96 1 
   127  143  144 1 
   128  143  145 1 
   129  149  150 1 
   130  149  151 1 
   131  155  156 1 
   132  155  157 1 
   133   95   93 1 
   134  161  162 1 
   135  161  163 1 
   136   65   67 1 
   137   65   68 1 
   138   97   96 1 
   139   96   93 1 
   140   96   98 1 
   141   93   94 1 
   142   93   90 1 
   143   70   68 1 
   144   89   87 1 
   145   91   90 1 
   146   68   69 1 
   147   68   71 1 
   148   90   87 1 
   149   90   92 1 
   150   72   71 1 
   151   87   88 1 
   152   87   84 1 
   153   83   81 1 
   154   85   84 1 
   155   71   73 1 
   156   71   74 1 
   157   84   81 1 
   158   84   86 1 
   159   81   82 1 
   160   81   78 1 
   161   79   78 1 
   162   74   75 1 
   163   74   76 2 
   164   78   76 1 
   165   78   80 1 
   166   76   77 1 
