@<TRIPOS>MOLECULE
C:\Users\Praveer\PycharmProjects\pdb_to_mol2_converter\data\pdb\dopa.pdb
  120   119     0     0     0
SMALL
GASTEIGER

@<TRIPOS>ATOM
      1 P           1.6030    0.0160   -0.0610 P.3       1 DOP1        0.0000
      2 O13         2.1460   -0.5030    1.2080 O.3       1 DOP1        0.0000
      3 O14         2.1310   -0.5170   -1.3250 O.2       1 DOP1        0.0000
      4 O12         2.0370    1.5220   -0.0740 O.3       1 DOP1        0.0000
      5 H12         2.9940    1.5310   -0.1410 H         1 DOP1        0.0000
      6 O11         0.0240    0.0090   -0.0310 O.3       1 DOP1        0.0000
      7 C1         -0.7030    0.4910    1.1050 C.3       1 DOP1        0.0000
      8 HA         -1.3890    1.2990    0.7700 H         1 DOP1        0.0000
      9 HB         -0.0410    0.9270    1.8940 H         1 DOP1        0.0000
     10 C2         -1.5430   -0.6370    1.7670 C.3       1 DOP1        0.0000
     11 HS         -2.3340   -0.9530    1.0460 H         1 DOP1        0.0000
     12 O21        -2.1060   -0.1480    2.9960 O.3       1 DOP1        0.0000
     13 C21        -3.1200    0.6840    2.8700 C.2       1 DOP1        0.0000
     14 O22        -3.7460    0.9120    1.8530 O.2       1 DOP1        0.0000
     15 C22        -3.3540    1.3800    4.2140 C.3       1 DOP1        0.0000
     16 H2R        -2.9750    2.4180    4.1110 H         1 DOP1        0.0000
     17 H2S        -2.7580    0.8650    4.9960 H         1 DOP1        0.0000
     18 C3         -0.6880   -1.8940    2.0860 C.3       1 DOP1        0.0000
     19 HX          0.0350   -1.6570    2.9000 H         1 DOP1        0.0000
     20 HY         -0.0840   -2.1270    1.1820 H         1 DOP1        0.0000
     21 O31        -1.5100   -3.0480    2.3610 O.3       1 DOP1        0.0000
     22 C31        -1.7730   -3.3220    3.6260 C.2       1 DOP1        0.0000
     23 O32        -1.4270   -2.6880    4.6020 O.2       1 DOP1        0.0000
     24 C32        -2.5760   -4.6280    3.6510 C.3       1 DOP1        0.0000
     25 H2X        -1.9080   -5.4290    3.2720 H         1 DOP1        0.0000
     26 H2Y        -3.4270   -4.5230    2.9480 H         1 DOP1        0.0000
     27 C23        -4.8400    1.4050    4.6310 C.3       1 DOP1        0.0000
     28 H3R        -5.2150    0.3600    4.7320 H         1 DOP1        0.0000
     29 H3S        -5.4530    1.9100    3.8500 H         1 DOP1        0.0000
     30 C24        -5.0320    2.1300    5.9690 C.3       1 DOP1        0.0000
     31 H4R        -4.7270    3.1950    5.8570 H         1 DOP1        0.0000
     32 H4S        -4.3600    1.6660    6.7270 H         1 DOP1        0.0000
     33 C25        -6.4740    2.0640    6.4860 C.3       1 DOP1        0.0000
     34 H5R        -6.7840    0.9960    6.5460 H         1 DOP1        0.0000
     35 H5S        -7.1520    2.5750    5.7660 H         1 DOP1        0.0000
     36 C26        -6.6240    2.7020    7.8740 C.3       1 DOP1        0.0000
     37 H6R        -6.3460    3.7780    7.8190 H         1 DOP1        0.0000
     38 H6S        -5.9160    2.2050    8.5750 H         1 DOP1        0.0000
     39 C27        -8.0480    2.5750    8.4350 C.3       1 DOP1        0.0000
     40 H7R        -8.3360    1.4990    8.4280 H         1 DOP1        0.0000
     41 H7S        -8.7480    3.1200    7.7620 H         1 DOP1        0.0000
     42 C28        -8.1600    3.1290    9.8670 C.3       1 DOP1        0.0000
     43 H8R        -7.8160    4.1880    9.8480 H         1 DOP1        0.0000
     44 H8S        -7.4480    2.5690   10.5140 H         1 DOP1        0.0000
     45 C29        -9.5610    2.9950   10.4110 C.2       1 DOP1        0.0000
     46 H9R        -9.9830    1.9810   10.3460 H         1 DOP1        0.0000
     47 C210      -10.3240    3.9810   10.9230 C.2       1 DOP1        0.0000
     48 H10R      -11.3400    3.7370   11.2710 H         1 DOP1        0.0000
     49 C211       -9.9260    5.4260   11.0930 C.3       1 DOP1        0.0000
     50 H11R       -8.8260    5.5350   11.2250 H         1 DOP1        0.0000
     51 H11S      -10.3940    5.8410   12.0140 H         1 DOP1        0.0000
     52 C212      -10.3550    6.2900    9.8930 C.3       1 DOP1        0.0000
     53 H12R      -11.4570    6.2250    9.7560 H         1 DOP1        0.0000
     54 H12S       -9.8730    5.9010    8.9670 H         1 DOP1        0.0000
     55 C213       -9.9630    7.7640   10.0710 C.3       1 DOP1        0.0000
     56 H13R       -8.8610    7.8310   10.2110 H         1 DOP1        0.0000
     57 H13S      -10.4460    8.1610   10.9920 H         1 DOP1        0.0000
     58 C214      -10.3690    8.6360    8.8760 C.3       1 DOP1        0.0000
     59 H14R      -11.4720    8.5730    8.7360 H         1 DOP1        0.0000
     60 H14S       -9.8870    8.2390    7.9550 H         1 DOP1        0.0000
     61 C215       -9.9690   10.1070    9.0600 C.3       1 DOP1        0.0000
     62 H15R       -8.8660   10.1680    9.2010 H         1 DOP1        0.0000
     63 H15S      -10.4500   10.5030    9.9820 H         1 DOP1        0.0000
     64 C216      -10.3720   10.9830    7.8660 C.3       1 DOP1        0.0000
     65 H16R      -11.4750   10.9220    7.7260 H         1 DOP1        0.0000
     66 H16S       -9.8920   10.5860    6.9440 H         1 DOP1        0.0000
     67 C217       -9.9710   12.4520    8.0480 C.3       1 DOP1        0.0000
     68 H17R       -8.8680   12.5080    8.1910 H         1 DOP1        0.0000
     69 H17S      -10.4470   12.8420    8.9760 H         1 DOP1        0.0000
     70 C218      -10.3700   13.3400    6.8660 C.3       1 DOP1        0.0000
     71 H18R      -11.4720   13.3200    6.7200 H         1 DOP1        0.0000
     72 H18S       -9.8860   12.9850    5.9320 H         1 DOP1        0.0000
     73 H18T      -10.0590   14.3920    7.0460 H         1 DOP1        0.0000
     74 C33        -3.0990   -5.0100    5.0520 C.3       1 DOP1        0.0000
     75 H3X        -3.8390   -4.2510    5.3920 H         1 DOP1        0.0000
     76 H3Y        -2.2610   -5.0150    5.7860 H         1 DOP1        0.0000
     77 C34        -3.7600   -6.3960    5.0530 C.3       1 DOP1        0.0000
     78 H4X        -2.9940   -7.1660    4.8090 H         1 DOP1        0.0000
     79 H4Y        -4.5370   -6.4300    4.2560 H         1 DOP1        0.0000
     80 C35        -4.4180   -6.7430    6.3950 C.3       1 DOP1        0.0000
     81 H5X        -5.1950   -5.9780    6.6210 H         1 DOP1        0.0000
     82 H5Y        -3.6560   -6.7010    7.2050 H         1 DOP1        0.0000
     83 C36        -5.0700   -8.1320    6.3790 C.3       1 DOP1        0.0000
     84 H6X        -4.2840   -8.9050    6.2260 H         1 DOP1        0.0000
     85 H6Y        -5.7720   -8.1890    5.5170 H         1 DOP1        0.0000
     86 C37        -5.8450   -8.4450    7.6660 C.3       1 DOP1        0.0000
     87 H7X        -6.6140   -7.6530    7.8130 H         1 DOP1        0.0000
     88 H7Y        -5.1460   -8.4050    8.5310 H         1 DOP1        0.0000
     89 C38        -6.5230   -9.8260    7.6120 C.3       1 DOP1        0.0000
     90 H8X        -5.7300  -10.5940    7.4760 H         1 DOP1        0.0000
     91 H8Y        -7.1660   -9.8630    6.7040 H         1 DOP1        0.0000
     92 C39        -7.3630  -10.0720    8.8420 C.2       1 DOP1        0.0000
     93 H9X        -8.1520   -9.3220    9.0030 H         1 DOP1        0.0000
     94 C310       -7.2340  -11.0680    9.7400 C.2       1 DOP1        0.0000
     95 H10X       -7.9260  -11.0910   10.5960 H         1 DOP1        0.0000
     96 C311       -6.2300  -12.1940    9.7250 C.3       1 DOP1        0.0000
     97 H11X       -5.7210  -12.2910    8.7410 H         1 DOP1        0.0000
     98 H11Y       -6.7490  -13.1620    9.9080 H         1 DOP1        0.0000
     99 C312       -5.1510  -12.0110   10.8090 C.3       1 DOP1        0.0000
    100 H12X       -5.6310  -11.9440   11.8110 H         1 DOP1        0.0000
    101 H12Y       -4.6040  -11.0580   10.6300 H         1 DOP1        0.0000
    102 C313       -4.1380  -13.1650   10.8260 C.3       1 DOP1        0.0000
    103 H13X       -3.6480  -13.2340    9.8290 H         1 DOP1        0.0000
    104 H13Y       -4.6770  -14.1220   11.0060 H         1 DOP1        0.0000
    105 C314       -3.0590  -12.9870   11.9030 C.3       1 DOP1        0.0000
    106 H14X       -3.5490  -12.9200   12.9010 H         1 DOP1        0.0000
    107 H14Y       -2.5220  -12.0280   11.7260 H         1 DOP1        0.0000
    108 C315       -2.0430  -14.1370   11.9190 C.3       1 DOP1        0.0000
    109 H15X       -1.5470  -14.1990   10.9250 H         1 DOP1        0.0000
    110 H15Y       -2.5810  -15.0960   12.0890 H         1 DOP1        0.0000
    111 C316       -0.9740  -13.9620   13.0060 C.3       1 DOP1        0.0000
    112 H16X       -1.4710  -13.9020   14.0000 H         1 DOP1        0.0000
    113 H16Y       -0.4370  -13.0020   12.8380 H         1 DOP1        0.0000
    114 C317        0.0450  -15.1090   13.0260 C.3       1 DOP1        0.0000
    115 H17X        0.5400  -15.1660   12.0300 H         1 DOP1        0.0000
    116 H17Y       -0.4980  -16.0690   13.1840 H         1 DOP1        0.0000
    117 C318        1.1130  -14.9510   14.1110 C.3       1 DOP1        0.0000
    118 H18X        0.6430  -14.9180   15.1180 H         1 DOP1        0.0000
    119 H18Y        1.6850  -14.0100   13.9600 H         1 DOP1        0.0000
    120 H18Z        1.8250  -15.8040   14.0840 H         1 DOP1        0.0000
@<TRIPOS>BOND
     1    3    1 2 
     2    5    4 1 
     3    4    1 1 
     4    1    6 1 
     5    1    2 1 
     6    6    7 1 
     7    8    7 1 
     8   11   10 1 
     9    7   10 1 
    10    7    9 1 
    11   20   18 1 
    12   10   18 1 
    13   10   12 1 
    14   14   13 2 
    15   18   21 1 
    16   18   19 1 
    17   21   22 1 
    18   13   12 1 
    19   13   15 1 
    20   26   24 1 
    21   25   24 1 
    22   22   24 1 
    23   22   23 2 
    24   24   74 1 
    25   29   27 1 
    26   16   15 1 
    27   15   27 1 
    28   15   17 1 
    29   79   77 1 
    30   27   28 1 
    31   27   30 1 
    32   78   77 1 
    33   74   77 1 
    34   74   75 1 
    35   74   76 1 
    36   77   80 1 
    37   85   83 1 
    38   35   33 1 
    39   31   30 1 
    40   72   70 1 
    41   30   33 1 
    42   30   32 1 
    43   84   83 1 
    44   83   80 1 
    45   83   86 1 
    46   80   81 1 
    47   80   82 1 
    48   33   34 1 
    49   33   36 1 
    50   91   89 1 
    51   71   70 1 
    52   70   73 1 
    53   70   67 1 
    54   66   64 1 
    55   90   89 1 
    56   89   86 1 
    57   89   92 1 
    58   86   87 1 
    59   86   88 1 
    60   65   64 1 
    61   41   39 1 
    62   37   36 1 
    63   64   67 1 
    64   64   61 1 
    65   36   39 1 
    66   36   38 1 
    67   60   58 1 
    68   67   68 1 
    69   67   69 1 
    70   40   39 1 
    71   39   42 1 
    72   59   58 1 
    73   97   96 1 
    74   92   93 1 
    75   92   94 2 
    76   58   61 1 
    77   58   55 1 
    78   54   52 1 
    79   61   62 1 
    80   61   63 1 
    81   96   94 1 
    82   96   98 1 
    83   96   99 1 
    84   94   95 1 
    85   53   52 1 
    86  103  102 1 
    87   43   42 1 
    88   42   45 1 
    89   42   44 1 
    90   52   55 1 
    91   52   49 1 
    92   55   56 1 
    93   55   57 1 
    94   46   45 1 
    95   45   47 2 
    96  101   99 1 
    97   99  102 1 
    98   99  100 1 
    99  102  104 1 
   100  102  105 1 
   101   47   49 1 
   102   47   48 1 
   103  109  108 1 
   104   49   50 1 
   105   49   51 1 
   106  107  105 1 
   107  105  108 1 
   108  105  106 1 
   109  108  110 1 
   110  108  111 1 
   111  115  114 1 
   112  113  111 1 
   113  111  114 1 
   114  111  112 1 
   115  114  116 1 
   116  114  117 1 
   117  119  117 1 
   118  120  117 1 
   119  117  118 1 
