@<TRIPOS>MOLECULE
C:\Users\Praveer\PycharmProjects\pdb_to_mol2_converter\data\pdb\dopc.pdb
  138   137     0     0     0
SMALL
GASTEIGER

@<TRIPOS>ATOM
      1 N           1.5110   -0.0060   -0.0060 N.4       1 DOP1        0.0000
      2 C12         1.9740    1.4440   -0.0090 C.3       1 DOP1        0.0000
      3 H12A        3.0410    1.5220    0.1350 H         1 DOP1        0.0000
      4 H12B        1.5160    1.9490    0.8500 H         1 DOP1        0.0000
      5 C13         2.0080   -0.7210   -1.2230 C.3       1 DOP1        0.0000
      6 H13A        3.0890   -0.7270   -1.2600 H         1 DOP1        0.0000
      7 H13B        1.6470   -0.2160   -2.1140 H         1 DOP1        0.0000
      8 H13C        1.6490   -1.7410   -1.2490 H         1 DOP1        0.0000
      9 C14         1.9880   -0.6880    1.2410 C.3       1 DOP1        0.0000
     10 H14A        1.6120   -0.1620    2.1140 H         1 DOP1        0.0000
     11 H14B        3.0690   -0.7040    1.2930 H         1 DOP1        0.0000
     12 H14C        1.6230   -1.7060    1.2850 H         1 DOP1        0.0000
     13 C15         0.0070   -0.0140    0.0040 C.3       1 DOP1        0.0000
     14 H15A       -0.3930    0.5560   -0.8390 H         1 DOP1        0.0000
     15 H15B       -0.3670    0.5420    0.8670 H         1 DOP1        0.0000
     16 H15C       -0.4150   -1.0020    0.0000 H         1 DOP1        0.0000
     17 C11         1.5700    2.3010   -1.2250 C.3       1 DOP1        0.0000
     18 H11A        0.8990    1.7650   -1.9340 H         1 DOP1        0.0000
     19 H11B        2.4850    2.5750   -1.7970 H         1 DOP1        0.0000
     20 P          -0.4620    3.3740   -0.0390 P.3       1 DOP1        0.0000
     21 O13        -1.3450    2.5550   -0.9000 O.2       1 DOP1        0.0000
     22 O14        -0.2180    2.8410    1.3220 O.3       1 DOP1        0.0000
     23 O12         0.9520    3.4940   -0.7520 O.3       1 DOP1        0.0000
     24 O11        -0.9820    4.8650    0.0290 O.3       1 DOP1        0.0000
     25 C1         -2.3530    5.0840    0.3790 C.3       1 DOP1        0.0000
     26 HA         -2.6410    4.5030    1.2890 H         1 DOP1        0.0000
     27 HB         -3.0140    4.7810   -0.4650 H         1 DOP1        0.0000
     28 C2         -2.6070    6.5810    0.6940 C.3       1 DOP1        0.0000
     29 HS         -2.3140    7.1560   -0.2170 H         1 DOP1        0.0000
     30 O21        -1.8150    6.9370    1.8440 O.3       1 DOP1        0.0000
     31 C21        -1.3760    8.1790    1.8640 C.2       1 DOP1        0.0000
     32 O22        -1.5790    9.0340    1.0190 O.2       1 DOP1        0.0000
     33 C22        -0.5800    8.3970    3.1510 C.3       1 DOP1        0.0000
     34 H2R         0.2740    7.6890    3.1490 H         1 DOP1        0.0000
     35 H2S        -1.2450    8.1490    4.0040 H         1 DOP1        0.0000
     36 C3         -4.1160    6.8340    0.9860 C.3       1 DOP1        0.0000
     37 HX         -4.3920    6.1740    1.8380 H         1 DOP1        0.0000
     38 HY         -4.7240    6.5020    0.1130 H         1 DOP1        0.0000
     39 O31        -4.3860    8.2000    1.3690 O.3       1 DOP1        0.0000
     40 C31        -4.6030    9.0380    0.3580 C.2       1 DOP1        0.0000
     41 O32        -4.7220    8.7230   -0.8120 O.2       1 DOP1        0.0000
     42 C32        -4.7040   10.4580    0.9160 C.3       1 DOP1        0.0000
     43 H2X        -3.6820   10.7650    1.2220 H         1 DOP1        0.0000
     44 H2Y        -5.3500   10.4290    1.8170 H         1 DOP1        0.0000
     45 C23        -0.0730    9.8500    3.2810 C.3       1 DOP1        0.0000
     46 H3R        -0.9330   10.5540    3.1990 H         1 DOP1        0.0000
     47 H3S         0.6270   10.0770    2.4440 H         1 DOP1        0.0000
     48 C24         0.6380   10.1060    4.6150 C.3       1 DOP1        0.0000
     49 H4R         1.5070    9.4170    4.7100 H         1 DOP1        0.0000
     50 H4S        -0.0650    9.8820    5.4490 H         1 DOP1        0.0000
     51 C25         1.1250   11.5550    4.7500 C.3       1 DOP1        0.0000
     52 H5R         0.2620   12.2420    4.6000 H         1 DOP1        0.0000
     53 H5S         1.8680   11.7680    3.9490 H         1 DOP1        0.0000
     54 C26         1.7570   11.8460    6.1180 C.3       1 DOP1        0.0000
     55 H6R         2.6270   11.1700    6.2740 H         1 DOP1        0.0000
     56 H6S         1.0100   11.6280    6.9140 H         1 DOP1        0.0000
     57 C27         2.2190   13.3050    6.2530 C.3       1 DOP1        0.0000
     58 H7R         1.3540   13.9720    6.0380 H         1 DOP1        0.0000
     59 H7S         3.0010   13.5030    5.4850 H         1 DOP1        0.0000
     60 C28         2.7770   13.6170    7.6540 C.3       1 DOP1        0.0000
     61 H8R         3.6080   12.9040    7.8550 H         1 DOP1        0.0000
     62 H8S         1.9810   13.4070    8.4030 H         1 DOP1        0.0000
     63 C29         3.2210   15.0560    7.7650 C.2       1 DOP1        0.0000
     64 H9R         2.4640   15.7950    7.4580 H         1 DOP1        0.0000
     65 C210        4.4300   15.4960    8.1600 C.2       1 DOP1        0.0000
     66 H10R        4.6210   16.5800    8.1760 H         1 DOP1        0.0000
     67 C211        5.5890   14.6410    8.6130 C.3       1 DOP1        0.0000
     68 H11R        5.2390   13.6800    9.0520 H         1 DOP1        0.0000
     69 H11S        6.1530   15.1640    9.4170 H         1 DOP1        0.0000
     70 C212        6.5560   14.3190    7.4600 C.3       1 DOP1        0.0000
     71 H12R        6.9550   15.2650    7.0270 H         1 DOP1        0.0000
     72 H12S        6.0060   13.7820    6.6540 H         1 DOP1        0.0000
     73 C213        7.7350   13.4480    7.9160 C.3       1 DOP1        0.0000
     74 H13R        7.3400   12.5010    8.3500 H         1 DOP1        0.0000
     75 H13S        8.2940   13.9800    8.7180 H         1 DOP1        0.0000
     76 C214        8.6990   13.1090    6.7710 C.3       1 DOP1        0.0000
     77 H14R        9.0980   14.0550    6.3390 H         1 DOP1        0.0000
     78 H14S        8.1380   12.5800    5.9680 H         1 DOP1        0.0000
     79 C215        9.8720   12.2310    7.2270 C.3       1 DOP1        0.0000
     80 H15R        9.4720   11.2850    7.6570 H         1 DOP1        0.0000
     81 H15S       10.4300   12.7590    8.0330 H         1 DOP1        0.0000
     82 C216       10.8390   11.8940    6.0850 C.3       1 DOP1        0.0000
     83 H16R       11.2370   12.8400    5.6540 H         1 DOP1        0.0000
     84 H16S       10.2830   11.3640    5.2790 H         1 DOP1        0.0000
     85 C217       12.0130   11.0190    6.5420 C.3       1 DOP1        0.0000
     86 H17R       11.6090   10.0750    6.9750 H         1 DOP1        0.0000
     87 H17S       12.5610   11.5510    7.3540 H         1 DOP1        0.0000
     88 C218       12.9920   10.6780    5.4150 C.3       1 DOP1        0.0000
     89 H18R       13.4260   11.6050    4.9840 H         1 DOP1        0.0000
     90 H18S       12.4720   10.1240    4.6040 H         1 DOP1        0.0000
     91 H18T       13.8220   10.0450    5.7970 H         1 DOP1        0.0000
     92 C33        -5.2700   11.4690   -0.1050 C.3       1 DOP1        0.0000
     93 H3X        -6.2830   11.1410   -0.4340 H         1 DOP1        0.0000
     94 H3Y        -4.6170   11.5010   -1.0070 H         1 DOP1        0.0000
     95 C34        -5.3750   12.8810    0.4880 C.3       1 DOP1        0.0000
     96 H4X        -4.3570   13.2360    0.7670 H         1 DOP1        0.0000
     97 H4Y        -5.9850   12.8380    1.4180 H         1 DOP1        0.0000
     98 C35        -6.0150   13.8900   -0.4740 C.3       1 DOP1        0.0000
     99 H5X        -7.0300   13.5270   -0.7550 H         1 DOP1        0.0000
    100 H5Y        -5.4080   13.9510   -1.4050 H         1 DOP1        0.0000
    101 C36        -6.1390   15.2890    0.1440 C.3       1 DOP1        0.0000
    102 H6X        -5.1230   15.6790    0.3760 H         1 DOP1        0.0000
    103 H6Y        -6.6990   15.2110    1.1040 H         1 DOP1        0.0000
    104 C37        -6.8680   16.2830   -0.7720 C.3       1 DOP1        0.0000
    105 H7X        -7.8740   15.8690   -1.0090 H         1 DOP1        0.0000
    106 H7Y        -6.3030   16.3750   -1.7280 H         1 DOP1        0.0000
    107 C38        -7.0170   17.6730   -0.1250 C.3       1 DOP1        0.0000
    108 H8X        -5.9960   18.0550    0.0980 H         1 DOP1        0.0000
    109 H8Y        -7.5340   17.5500    0.8530 H         1 DOP1        0.0000
    110 C39        -7.8070   18.6140   -1.0020 C.2       1 DOP1        0.0000
    111 H9X        -8.8220   18.2610   -1.2440 H         1 DOP1        0.0000
    112 C310       -7.4000   19.7920   -1.5130 C.2       1 DOP1        0.0000
    113 H10X       -8.1000   20.3570   -2.1500 H         1 DOP1        0.0000
    114 C311       -6.0610   20.4610   -1.3180 C.3       1 DOP1        0.0000
    115 H11X       -5.4830   20.0090   -0.4830 H         1 DOP1        0.0000
    116 H11Y       -6.2100   21.5310   -1.0530 H         1 DOP1        0.0000
    117 C312       -5.2000   20.3870   -2.5920 C.3       1 DOP1        0.0000
    118 H12X       -5.7420   20.8640   -3.4410 H         1 DOP1        0.0000
    119 H12Y       -5.0220   19.3200   -2.8590 H         1 DOP1        0.0000
    120 C313       -3.8430   21.0860   -2.4230 C.3       1 DOP1        0.0000
    121 H13X       -3.2880   20.6050   -1.5870 H         1 DOP1        0.0000
    122 H13Y       -4.0130   22.1510   -2.1480 H         1 DOP1        0.0000
    123 C314       -2.9880   21.0260   -3.6960 C.3       1 DOP1        0.0000
    124 H14X       -3.5450   21.5080   -4.5310 H         1 DOP1        0.0000
    125 H14Y       -2.8200   19.9610   -3.9730 H         1 DOP1        0.0000
    126 C315       -1.6310   21.7230   -3.5310 C.3       1 DOP1        0.0000
    127 H15X       -1.0680   21.2340   -2.7050 H         1 DOP1        0.0000
    128 H15Y       -1.8000   22.7850   -3.2440 H         1 DOP1        0.0000
    129 C316       -0.7850   21.6790   -4.8120 C.3       1 DOP1        0.0000
    130 H16X       -1.3490   22.1680   -5.6370 H         1 DOP1        0.0000
    131 H16Y       -0.6160   20.6170   -5.1010 H         1 DOP1        0.0000
    132 C317        0.5720   22.3760   -4.6500 C.3       1 DOP1        0.0000
    133 H17X        1.1320   21.8840   -3.8230 H         1 DOP1        0.0000
    134 H17Y        0.3970   23.4350   -4.3500 H         1 DOP1        0.0000
    135 C318        1.4240   22.3480   -5.9220 C.3       1 DOP1        0.0000
    136 H18X        0.8950   22.8580   -6.7550 H         1 DOP1        0.0000
    137 H18Y        1.6320   21.3000   -6.2280 H         1 DOP1        0.0000
    138 H18Z        2.3940   22.8640   -5.7540 H         1 DOP1        0.0000
@<TRIPOS>BOND
     1  136  135 1 
     2  137  135 1 
     3  135  138 1 
     4  135  132 1 
     5  130  129 1 
     6  131  129 1 
     7  129  132 1 
     8  129  126 1 
     9  132  134 1 
    10  132  133 1 
    11  124  123 1 
    12  125  123 1 
    13  123  126 1 
    14  123  120 1 
    15  126  128 1 
    16  126  127 1 
    17  118  117 1 
    18  119  117 1 
    19  117  120 1 
    20  117  114 1 
    21  120  122 1 
    22  120  121 1 
    23  113  112 1 
    24    7    5 1 
    25   18   17 1 
    26   19   17 1 
    27  106  104 1 
    28  112  114 1 
    29  112  110 2 
    30  100   98 1 
    31  114  116 1 
    32  114  115 1 
    33    6    5 1 
    34    8    5 1 
    35  111  110 1 
    36   17   23 1 
    37   17    2 1 
    38    5    1 1 
    39  105  104 1 
    40   94   92 1 
    41  110  107 1 
    42   21   20 2 
    43   14   13 1 
    44   41   40 2 
    45  104  107 1 
    46  104  101 1 
    47   99   98 1 
    48   23   20 1 
    49   98  101 1 
    50   98   95 1 
    51   27   25 1 
    52   93   92 1 
    53   29   28 1 
    54  107  108 1 
    55  107  109 1 
    56   92   95 1 
    57   92   42 1 
    58   20   24 1 
    59   20   22 1 
    60    2    1 1 
    61    2    3 1 
    62    2    4 1 
    63    1   13 1 
    64    1    9 1 
    65   16   13 1 
    66   13   15 1 
    67   24   25 1 
    68   38   36 1 
    69  101  102 1 
    70  101  103 1 
    71   40   42 1 
    72   40   39 1 
    73   25   28 1 
    74   25   26 1 
    75   95   96 1 
    76   95   97 1 
    77   28   36 1 
    78   28   30 1 
    79   42   43 1 
    80   42   44 1 
    81   36   39 1 
    82   36   37 1 
    83   32   31 2 
    84    9   12 1 
    85    9   11 1 
    86    9   10 1 
    87   30   31 1 
    88   31   33 1 
    89   47   45 1 
    90   34   33 1 
    91   33   45 1 
    92   33   35 1 
    93   46   45 1 
    94   45   48 1 
    95   53   51 1 
    96   52   51 1 
    97   90   88 1 
    98   48   49 1 
    99   48   51 1 
   100   48   50 1 
   101   51   54 1 
   102   89   88 1 
   103   84   82 1 
   104   88   91 1 
   105   88   85 1 
   106   59   57 1 
   107   83   82 1 
   108   78   76 1 
   109   58   57 1 
   110   82   85 1 
   111   82   79 1 
   112   54   57 1 
   113   54   55 1 
   114   54   56 1 
   115   57   60 1 
   116   77   76 1 
   117   85   86 1 
   118   85   87 1 
   119   72   70 1 
   120   76   79 1 
   121   76   73 1 
   122   71   70 1 
   123   79   80 1 
   124   79   81 1 
   125   64   63 1 
   126   70   73 1 
   127   70   67 1 
   128   60   63 1 
   129   60   61 1 
   130   60   62 1 
   131   63   65 2 
   132   73   74 1 
   133   73   75 1 
   134   65   66 1 
   135   65   67 1 
   136   67   68 1 
   137   67   69 1 
