@<TRIPOS>MOLECULE
C:\Users\Praveer\PycharmProjects\pdb_to_mol2_converter\data\pdb\dope.pdb
  129   128     0     0     0
SMALL
GASTEIGER

@<TRIPOS>ATOM
      1 N          -0.0190    0.0000   -0.0180 N.4       1 DOP1        0.0000
      2 HN1        -0.4350   -0.9420    0.0830 H         1 DOP1        0.0000
      3 HN2        -0.3860    0.4940   -0.8540 H         1 DOP1        0.0000
      4 HN3        -0.3190    0.6000    0.8110 H         1 DOP1        0.0000
      5 C12         1.4910    0.0080   -0.0130 C.3       1 DOP1        0.0000
      6 H12A        1.8370   -0.5550   -0.9030 H         1 DOP1        0.0000
      7 H12B        1.8280   -0.5110    0.9090 H         1 DOP1        0.0000
      8 C11         2.0610    1.4440   -0.0290 C.3       1 DOP1        0.0000
      9 H11A        1.7320    1.9950   -0.9420 H         1 DOP1        0.0000
     10 H11B        3.1710    1.3660   -0.1040 H         1 DOP1        0.0000
     11 P           0.3670    2.8990    1.3470 P.3       1 DOP1        0.0000
     12 O13        -0.5430    1.8250    1.8130 O.3       1 DOP1        0.0000
     13 O14         0.0220    3.5130    0.0530 O.2       1 DOP1        0.0000
     14 O11         0.6330    3.9640    2.4790 O.3       1 DOP1        0.0000
     15 O12         1.7580    2.1590    1.1720 O.3       1 DOP1        0.0000
     16 C1          1.1470    3.5590    3.7520 C.3       1 DOP1        0.0000
     17 HA          1.8060    4.3660    4.1430 H         1 DOP1        0.0000
     18 HB          1.7740    2.6390    3.6830 H         1 DOP1        0.0000
     19 C2          0.0120    3.3270    4.7880 C.3       1 DOP1        0.0000
     20 HS         -0.7540    2.6740    4.3060 H         1 DOP1        0.0000
     21 O21        -0.5210    4.6100    5.1660 O.3       1 DOP1        0.0000
     22 C21        -1.7950    4.6150    5.5190 C.2       1 DOP1        0.0000
     23 O22        -2.5660    3.6750    5.4620 O.2       1 DOP1        0.0000
     24 C22        -2.1640    6.0110    6.0270 C.3       1 DOP1        0.0000
     25 H2R        -2.6360    6.5620    5.1880 H         1 DOP1        0.0000
     26 H2S        -1.2330    6.5390    6.3200 H         1 DOP1        0.0000
     27 C3          0.5630    2.5930    6.0440 C.3       1 DOP1        0.0000
     28 HX          1.3530    3.2430    6.4880 H         1 DOP1        0.0000
     29 HY          1.0330    1.6410    5.7080 H         1 DOP1        0.0000
     30 O31        -0.4810    2.3290    7.0030 O.3       1 DOP1        0.0000
     31 C31        -0.0510    1.7590    8.1190 C.2       1 DOP1        0.0000
     32 O32         1.1040    1.4470    8.3510 O.2       1 DOP1        0.0000
     33 C32        -1.2340    1.5670    9.0650 C.3       1 DOP1        0.0000
     34 H2X        -1.8560    0.7380    8.6710 H         1 DOP1        0.0000
     35 H2Y        -1.8390    2.4980    9.0510 H         1 DOP1        0.0000
     36 C23        -3.1260    5.9480    7.2340 C.3       1 DOP1        0.0000
     37 H3R        -2.6790    5.3080    8.0300 H         1 DOP1        0.0000
     38 H3S        -4.0870    5.4770    6.9250 H         1 DOP1        0.0000
     39 C24        -3.4110    7.3330    7.8320 C.3       1 DOP1        0.0000
     40 H4R        -3.8970    7.9750    7.0630 H         1 DOP1        0.0000
     41 H4S        -2.4460    7.8120    8.1140 H         1 DOP1        0.0000
     42 C25        -4.3100    7.2580    9.0740 C.3       1 DOP1        0.0000
     43 H5R        -3.8390    6.5780    9.8190 H         1 DOP1        0.0000
     44 H5S        -5.2920    6.8180    8.7890 H         1 DOP1        0.0000
     45 C26        -4.5400    8.6260    9.7310 C.3       1 DOP1        0.0000
     46 H6R        -5.0290    9.3090    9.0000 H         1 DOP1        0.0000
     47 H6S        -3.5550    9.0690   10.0010 H         1 DOP1        0.0000
     48 C27        -5.4090    8.5290   10.9930 C.3       1 DOP1        0.0000
     49 H7R        -4.9390    7.7990   11.6910 H         1 DOP1        0.0000
     50 H7S        -6.4090    8.1300   10.7060 H         1 DOP1        0.0000
     51 C28        -5.5770    9.8850   11.7030 C.3       1 DOP1        0.0000
     52 H8R        -5.9980   10.6050   10.9670 H         1 DOP1        0.0000
     53 H8S        -4.5690   10.2620   11.9860 H         1 DOP1        0.0000
     54 C29        -6.4430    9.7550   12.9330 C.2       1 DOP1        0.0000
     55 H9R        -6.1250    8.9700   13.6370 H         1 DOP1        0.0000
     56 C210       -7.5510   10.4660   13.2170 C.2       1 DOP1        0.0000
     57 H10R       -8.0970   10.2470   14.1480 H         1 DOP1        0.0000
     58 C211       -8.1430   11.5750   12.3830 C.3       1 DOP1        0.0000
     59 H11R       -7.3670   12.0800   11.7640 H         1 DOP1        0.0000
     60 H11S       -8.5720   12.3590   13.0450 H         1 DOP1        0.0000
     61 C212       -9.2500   11.0640   11.4440 C.3       1 DOP1        0.0000
     62 H12R      -10.0580   10.5820   12.0390 H         1 DOP1        0.0000
     63 H12S       -8.8270   10.2940   10.7590 H         1 DOP1        0.0000
     64 C213       -9.8630   12.1900   10.5990 C.3       1 DOP1        0.0000
     65 H13R       -9.0570   12.6790   10.0060 H         1 DOP1        0.0000
     66 H13S      -10.2980   12.9590   11.2760 H         1 DOP1        0.0000
     67 C214      -10.9530   11.6870    9.6430 C.3       1 DOP1        0.0000
     68 H14R      -11.7640   11.2070   10.2340 H         1 DOP1        0.0000
     69 H14S      -10.5190   10.9120    8.9720 H         1 DOP1        0.0000
     70 C215      -11.5510   12.8120    8.7870 C.3       1 DOP1        0.0000
     71 H15R      -10.7380   13.2910    8.1970 H         1 DOP1        0.0000
     72 H15S      -11.9850   13.5880    9.4570 H         1 DOP1        0.0000
     73 C216      -12.6390   12.3110    7.8280 C.3       1 DOP1        0.0000
     74 H16R      -13.4530   11.8320    8.4170 H         1 DOP1        0.0000
     75 H16S      -12.2060   11.5350    7.1580 H         1 DOP1        0.0000
     76 C217      -13.2360   13.4360    6.9720 C.3       1 DOP1        0.0000
     77 H17R      -12.4180   13.9120    6.3850 H         1 DOP1        0.0000
     78 H17S      -13.6590   14.2140    7.6470 H         1 DOP1        0.0000
     79 C218      -14.3280   12.9550    6.0120 C.3       1 DOP1        0.0000
     80 H18R      -15.1680   12.4960    6.5770 H         1 DOP1        0.0000
     81 H18S      -13.9220   12.1960    5.3100 H         1 DOP1        0.0000
     82 H18T      -14.7280   13.8050    5.4180 H         1 DOP1        0.0000
     83 C33        -0.7820    1.2570   10.5090 C.3       1 DOP1        0.0000
     84 H3X        -0.1100    2.0710   10.8680 H         1 DOP1        0.0000
     85 H3Y        -0.1990    0.3080   10.5300 H         1 DOP1        0.0000
     86 C34        -1.9650    1.1420   11.4780 C.3       1 DOP1        0.0000
     87 H4X        -2.6050    0.2800   11.1830 H         1 DOP1        0.0000
     88 H4Y        -2.5860    2.0640   11.4060 H         1 DOP1        0.0000
     89 C35        -1.5100    0.9670   12.9330 C.3       1 DOP1        0.0000
     90 H5X        -0.8610    1.8280   13.2110 H         1 DOP1        0.0000
     91 H5Y        -0.8970    0.0410   13.0200 H         1 DOP1        0.0000
     92 C36        -2.6840    0.8920   13.9180 C.3       1 DOP1        0.0000
     93 H6X        -3.3000   -0.0060   13.6880 H         1 DOP1        0.0000
     94 H6Y        -3.3280    1.7900   13.7810 H         1 DOP1        0.0000
     95 C37        -2.2230    0.8310   15.3820 C.3       1 DOP1        0.0000
     96 H7X        -1.5880    1.7230   15.5890 H         1 DOP1        0.0000
     97 H7Y        -1.5920   -0.0760   15.5230 H         1 DOP1        0.0000
     98 C38        -3.4060    0.7970   16.3670 C.3       1 DOP1        0.0000
     99 H8X        -4.0280   -0.0910   16.1200 H         1 DOP1        0.0000
    100 H8Y        -4.0390    1.6940   16.1840 H         1 DOP1        0.0000
    101 C39        -2.9360    0.7910   17.8020 C.2       1 DOP1        0.0000
    102 H9X        -2.3220    1.6620   18.0800 H         1 DOP1        0.0000
    103 C310       -3.1710   -0.1500   18.7360 C.2       1 DOP1        0.0000
    104 H10X       -2.7430   -0.0090   19.7410 H         1 DOP1        0.0000
    105 C311       -3.9730   -1.4190   18.5770 C.3       1 DOP1        0.0000
    106 H11X       -4.5820   -1.4200   17.6470 H         1 DOP1        0.0000
    107 H11Y       -4.6910   -1.5190   19.4220 H         1 DOP1        0.0000
    108 C312       -3.0650   -2.6630   18.5580 C.3       1 DOP1        0.0000
    109 H12X       -2.4640   -2.7040   19.4940 H         1 DOP1        0.0000
    110 H12Y       -2.3570   -2.5910   17.7020 H         1 DOP1        0.0000
    111 C313       -3.8620   -3.9690   18.4300 C.3       1 DOP1        0.0000
    112 H13X       -4.4560   -3.9440   17.4900 H         1 DOP1        0.0000
    113 H13Y       -4.5760   -4.0460   19.2810 H         1 DOP1        0.0000
    114 C314       -2.9590   -5.2100   18.4210 C.3       1 DOP1        0.0000
    115 H14X       -2.3640   -5.2340   19.3620 H         1 DOP1        0.0000
    116 H14Y       -2.2430   -5.1340   17.5720 H         1 DOP1        0.0000
    117 C315       -3.7500   -6.5190   18.2950 C.3       1 DOP1        0.0000
    118 H15X       -4.3360   -6.5000   17.3490 H         1 DOP1        0.0000
    119 H15Y       -4.4720   -6.5910   19.1390 H         1 DOP1        0.0000
    120 C316       -2.8450   -7.7580   18.3030 C.3       1 DOP1        0.0000
    121 H16X       -2.2600   -7.7750   19.2500 H         1 DOP1        0.0000
    122 H16Y       -2.1210   -7.6860   17.4600 H         1 DOP1        0.0000
    123 C317       -3.6320   -9.0680   18.1770 C.3       1 DOP1        0.0000
    124 H17X       -4.2160   -9.0450   17.2280 H         1 DOP1        0.0000
    125 H17Y       -4.3620   -9.1290   19.0160 H         1 DOP1        0.0000
    126 C318       -2.7430  -10.3150   18.1910 C.3       1 DOP1        0.0000
    127 H18X       -2.1700  -10.3720   19.1420 H         1 DOP1        0.0000
    128 H18Y       -2.0210  -10.2870   17.3480 H         1 DOP1        0.0000
    129 H18Z       -3.3600  -11.2340   18.0970 H         1 DOP1        0.0000
@<TRIPOS>BOND
     1    9    8 1 
     2    6    5 1 
     3    3    1 1 
     4   10    8 1 
     5    8    5 1 
     6    8   15 1 
     7    1    5 1 
     8    1    2 1 
     9    1    4 1 
    10    5    7 1 
    11   13   11 2 
    12   15   11 1 
    13   11   12 1 
    14   11   14 1 
    15   14   16 1 
    16   18   16 1 
    17   16   17 1 
    18   16   19 1 
    19   20   19 1 
    20   19   21 1 
    21   19   27 1 
    22   21   22 1 
    23   25   24 1 
    24   81   79 1 
    25   82   79 1 
    26   23   22 2 
    27   22   24 1 
    28   29   27 1 
    29   79   80 1 
    30   79   76 1 
    31   24   26 1 
    32   24   36 1 
    33   27   28 1 
    34   27   30 1 
    35   77   76 1 
    36   38   36 1 
    37   76   78 1 
    38   76   73 1 
    39   30   31 1 
    40   40   39 1 
    41   75   73 1 
    42   36   39 1 
    43   36   37 1 
    44   73   74 1 
    45   73   70 1 
    46   39   41 1 
    47   39   42 1 
    48   31   32 2 
    49   31   33 1 
    50   71   70 1 
    51   34   33 1 
    52   70   72 1 
    53   70   67 1 
    54   44   42 1 
    55   69   67 1 
    56   46   45 1 
    57   35   33 1 
    58   33   83 1 
    59   42   45 1 
    60   42   43 1 
    61   67   68 1 
    62   67   64 1 
    63   45   47 1 
    64   45   48 1 
    65   65   64 1 
    66   83   85 1 
    67   83   84 1 
    68   83   86 1 
    69   64   66 1 
    70   64   61 1 
    71   50   48 1 
    72   63   61 1 
    73   52   51 1 
    74   48   49 1 
    75   48   51 1 
    76   87   86 1 
    77   88   86 1 
    78   61   62 1 
    79   61   58 1 
    80   86   89 1 
    81   51   53 1 
    82   51   54 1 
    83   59   58 1 
    84   58   60 1 
    85   58   56 1 
    86   54   56 2 
    87   54   55 1 
    88   89   91 1 
    89   89   90 1 
    90   89   92 1 
    91   56   57 1 
    92   93   92 1 
    93   94   92 1 
    94   92   95 1 
    95   95   97 1 
    96   95   96 1 
    97   95   98 1 
    98   99   98 1 
    99  100   98 1 
   100   98  101 1 
   101  124  123 1 
   102  128  126 1 
   103  118  117 1 
   104  122  120 1 
   105  112  111 1 
   106  116  114 1 
   107  106  105 1 
   108  110  108 1 
   109  101  102 1 
   110  101  103 2 
   111  129  126 1 
   112  123  126 1 
   113  123  120 1 
   114  123  125 1 
   115  126  127 1 
   116  117  120 1 
   117  117  114 1 
   118  117  119 1 
   119  120  121 1 
   120  114  111 1 
   121  114  115 1 
   122  111  108 1 
   123  111  113 1 
   124  108  105 1 
   125  108  109 1 
   126  105  103 1 
   127  105  107 1 
   128  103  104 1 
