@<TRIPOS>MOLECULE
C:\Users\Praveer\PycharmProjects\pdb_to_mol2_converter\data\pdb\dopg.pdb
  131   130     0     0     0
SMALL
GASTEIGER

@<TRIPOS>ATOM
      1 C13        -0.0050    0.0280    0.0070 C.3       1 DOP1        0.0000
      2 H13A       -0.3560   -1.0160    0.1630 H         1 DOP1        0.0000
      3 H13B       -0.3750    0.6370    0.8570 H         1 DOP1        0.0000
      4 OC3        -0.5530    0.5180   -1.2270 O.3       1 DOP1        0.0000
      5 HO3        -1.3730    1.0030   -1.0060 H         1 DOP1        0.0000
      6 C12         1.5520    0.0230   -0.0030 C.3       1 DOP1        0.0000
      7 H12A        1.9250   -0.5080    0.9000 H         1 DOP1        0.0000
      8 OC2         1.9750   -0.6990   -1.1580 O.3       1 DOP1        0.0000
      9 HO2         1.3170   -0.4130   -1.8050 H         1 DOP1        0.0000
     10 C11         2.1880    1.4450   -0.0170 C.3       1 DOP1        0.0000
     11 H11A        1.5350    2.1440   -0.5840 H         1 DOP1        0.0000
     12 H11B        3.1470    1.3810   -0.5780 H         1 DOP1        0.0000
     13 P           1.4450    2.3990    2.3590 P.3       1 DOP1        0.0000
     14 O13         0.9550    1.2070    3.0830 O.2       1 DOP1        0.0000
     15 O14         1.9930    3.5200    3.1530 O.3       1 DOP1        0.0000
     16 O12         2.5060    1.9430    1.2840 O.3       1 DOP1        0.0000
     17 O11         0.2540    2.9470    1.4700 O.3       1 DOP1        0.0000
     18 C1          0.3280    4.2430    0.8830 C.3       1 DOP1        0.0000
     19 HA          1.2590    4.3620    0.2810 H         1 DOP1        0.0000
     20 HB          0.3180    5.0230    1.6800 H         1 DOP1        0.0000
     21 C2         -0.9090    4.4530   -0.0250 C.3       1 DOP1        0.0000
     22 HS         -0.7980    3.7950   -0.9210 H         1 DOP1        0.0000
     23 O21        -1.0320    5.8420   -0.3900 O.3       1 DOP1        0.0000
     24 C21        -0.1490    6.2520   -1.2850 C.2       1 DOP1        0.0000
     25 O22         0.6290    5.5490   -1.9020 O.2       1 DOP1        0.0000
     26 C22        -0.2720    7.7680   -1.4370 C.3       1 DOP1        0.0000
     27 H2R        -0.2760    8.2170   -0.4220 H         1 DOP1        0.0000
     28 H2S        -1.2450    7.9810   -1.9260 H         1 DOP1        0.0000
     29 C3         -2.2100    4.0130    0.7100 C.3       1 DOP1        0.0000
     30 HX         -2.3660    4.7280    1.5470 H         1 DOP1        0.0000
     31 HY         -2.0610    3.0130    1.1790 H         1 DOP1        0.0000
     32 O31        -3.3740    4.0340   -0.1500 O.3       1 DOP1        0.0000
     33 C31        -3.5540    2.9290   -0.8640 C.2       1 DOP1        0.0000
     34 O32        -2.8230    1.9560   -0.8710 O.2       1 DOP1        0.0000
     35 C32        -4.8370    3.0530   -1.6830 C.3       1 DOP1        0.0000
     36 H2X        -4.8700    2.1890   -2.3780 H         1 DOP1        0.0000
     37 H2Y        -4.7780    3.9870   -2.2780 H         1 DOP1        0.0000
     38 C23         0.8820    8.3660   -2.2720 C.3       1 DOP1        0.0000
     39 H3R         0.9080    7.8840   -3.2770 H         1 DOP1        0.0000
     40 H3S         1.8540    8.1480   -1.7740 H         1 DOP1        0.0000
     41 C24         0.7490    9.8830   -2.4590 C.3       1 DOP1        0.0000
     42 H4R         0.7120   10.3770   -1.4620 H         1 DOP1        0.0000
     43 H4S        -0.2090   10.1020   -2.9820 H         1 DOP1        0.0000
     44 C25         1.9100   10.4750   -3.2700 C.3       1 DOP1        0.0000
     45 H5R         1.9830    9.9350   -4.2410 H         1 DOP1        0.0000
     46 H5S         2.8630   10.3080   -2.7190 H         1 DOP1        0.0000
     47 C26         1.7430   11.9750   -3.5490 C.3       1 DOP1        0.0000
     48 H6R         1.6790   12.5260   -2.5840 H         1 DOP1        0.0000
     49 H6S         0.7860   12.1360   -4.0960 H         1 DOP1        0.0000
     50 C27         2.8980   12.5480   -4.3840 C.3       1 DOP1        0.0000
     51 H7R         2.9930   11.9460   -5.3150 H         1 DOP1        0.0000
     52 H7S         3.8440   12.4360   -3.8070 H         1 DOP1        0.0000
     53 C28         2.6850   14.0290   -4.7480 C.3       1 DOP1        0.0000
     54 H8R         2.5490   14.5960   -3.8000 H         1 DOP1        0.0000
     55 H8S         1.7330   14.1180   -5.3180 H         1 DOP1        0.0000
     56 C29         3.8310   14.5650   -5.5730 C.2       1 DOP1        0.0000
     57 H9R         4.0780   13.9610   -6.4600 H         1 DOP1        0.0000
     58 C210        4.5700   15.6590   -5.3090 C.2       1 DOP1        0.0000
     59 H10R        5.3920   15.9200   -5.9930 H         1 DOP1        0.0000
     60 C211        4.3840   16.6070   -4.1500 C.3       1 DOP1        0.0000
     61 H11R        3.3280   16.6170   -3.7970 H         1 DOP1        0.0000
     62 H11S        4.6140   17.6470   -4.4710 H         1 DOP1        0.0000
     63 C212        5.2870   16.2470   -2.9580 C.3       1 DOP1        0.0000
     64 H12R        6.3550   16.2650   -3.2750 H         1 DOP1        0.0000
     65 H12S        5.0520   15.2130   -2.6150 H         1 DOP1        0.0000
     66 C213        5.1060   17.2090   -1.7760 C.3       1 DOP1        0.0000
     67 H13R        4.0390   17.1970   -1.4590 H         1 DOP1        0.0000
     68 H13S        5.3490   18.2440   -2.1060 H         1 DOP1        0.0000
     69 C214        5.9880   16.8440   -0.5740 C.3       1 DOP1        0.0000
     70 H14R        7.0560   16.8630   -0.8870 H         1 DOP1        0.0000
     71 H14S        5.7490   15.8060   -0.2500 H         1 DOP1        0.0000
     72 C215        5.7940   17.7980    0.6120 C.3       1 DOP1        0.0000
     73 H15R        4.7250   17.7780    0.9240 H         1 DOP1        0.0000
     74 H15S        6.0320   18.8360    0.2870 H         1 DOP1        0.0000
     75 C216        6.6740   17.4340    1.8150 C.3       1 DOP1        0.0000
     76 H16R        7.7430   17.4540    1.5040 H         1 DOP1        0.0000
     77 H16S        6.4370   16.3960    2.1410 H         1 DOP1        0.0000
     78 C217        6.4800   18.3880    3.0000 C.3       1 DOP1        0.0000
     79 H17R        5.4090   18.3670    3.3060 H         1 DOP1        0.0000
     80 H17S        6.7110   19.4260    2.6660 H         1 DOP1        0.0000
     81 C218        7.3560   18.0430    4.2080 C.3       1 DOP1        0.0000
     82 H18R        8.4320   18.0810    3.9310 H         1 DOP1        0.0000
     83 H18S        7.1250   17.0200    4.5750 H         1 DOP1        0.0000
     84 H18T        7.1800   18.7620    5.0370 H         1 DOP1        0.0000
     85 C33        -6.0990    3.0650   -0.7930 C.3       1 DOP1        0.0000
     86 H3X        -6.0550    3.9340   -0.0960 H         1 DOP1        0.0000
     87 H3Y        -6.1350    2.1370   -0.1760 H         1 DOP1        0.0000
     88 C34        -7.3930    3.1570   -1.6120 C.3       1 DOP1        0.0000
     89 H4X        -7.4650    2.2780   -2.2910 H         1 DOP1        0.0000
     90 H4Y        -7.3570    4.0720   -2.2460 H         1 DOP1        0.0000
     91 C35        -8.6450    3.2160   -0.7260 C.3       1 DOP1        0.0000
     92 H5X        -8.5580    4.0880   -0.0390 H         1 DOP1        0.0000
     93 H5Y        -8.6980    2.2970   -0.1000 H         1 DOP1        0.0000
     94 C36        -9.9410    3.3500   -1.5360 C.3       1 DOP1        0.0000
     95 H6X       -10.0670    2.4530   -2.1830 H         1 DOP1        0.0000
     96 H6Y        -9.8610    4.2380   -2.2020 H         1 DOP1        0.0000
     97 C37       -11.1820    3.5110   -0.6450 C.3       1 DOP1        0.0000
     98 H7X       -11.0270    4.3930    0.0170 H         1 DOP1        0.0000
     99 H7Y       -11.2790    2.6120    0.0050 H         1 DOP1        0.0000
    100 C38       -12.4720    3.6970   -1.4650 C.3       1 DOP1        0.0000
    101 H8X       -12.5930    2.8030   -2.1150 H         1 DOP1        0.0000
    102 H8Y       -12.3350    4.5700   -2.1410 H         1 DOP1        0.0000
    103 C39       -13.6700    3.9290   -0.5750 C.2       1 DOP1        0.0000
    104 H9X       -13.5800    4.8060    0.0850 H         1 DOP1        0.0000
    105 C310      -14.7910    3.1860   -0.5030 C.2       1 DOP1        0.0000
    106 H10X      -15.5730    3.4850    0.2120 H         1 DOP1        0.0000
    107 C311      -15.1230    1.9500   -1.3040 C.3       1 DOP1        0.0000
    108 H11X      -14.4380    1.8140   -2.1700 H         1 DOP1        0.0000
    109 H11Y      -16.1480    2.0390   -1.7260 H         1 DOP1        0.0000
    110 C312      -15.0580    0.6800   -0.4370 C.3       1 DOP1        0.0000
    111 H12X      -15.7580    0.7760    0.4240 H         1 DOP1        0.0000
    112 H12Y      -14.0280    0.5640   -0.0260 H         1 DOP1        0.0000
    113 C313      -15.4190   -0.5880   -1.2230 C.3       1 DOP1        0.0000
    114 H13X      -14.7150   -0.7000   -2.0780 H         1 DOP1        0.0000
    115 H13Y      -16.4450   -0.4780   -1.6420 H         1 DOP1        0.0000
    116 C314      -15.3640   -1.8530   -0.3560 C.3       1 DOP1        0.0000
    117 H14X      -16.0690   -1.7390    0.4980 H         1 DOP1        0.0000
    118 H14Y      -14.3390   -1.9620    0.0640 H         1 DOP1        0.0000
    119 C315      -15.7240   -3.1240   -1.1370 C.3       1 DOP1        0.0000
    120 H15X      -15.0130   -3.2440   -1.9850 H         1 DOP1        0.0000
    121 H15Y      -16.7450   -3.0110   -1.5650 H         1 DOP1        0.0000
    122 C316      -15.6820   -4.3850   -0.2630 C.3       1 DOP1        0.0000
    123 H16X      -16.3940   -4.2640    0.5840 H         1 DOP1        0.0000
    124 H16Y      -14.6620   -4.4970    0.1670 H         1 DOP1        0.0000
    125 C317      -16.0410   -5.6570   -1.0410 C.3       1 DOP1        0.0000
    126 H17X      -15.3270   -5.7730   -1.8880 H         1 DOP1        0.0000
    127 H17Y      -17.0590   -5.5350   -1.4780 H         1 DOP1        0.0000
    128 C318      -16.0120   -6.9220   -0.1800 C.3       1 DOP1        0.0000
    129 H18X      -16.7380   -6.8390    0.6580 H         1 DOP1        0.0000
    130 H18Y      -14.9990   -7.0780    0.2490 H         1 DOP1        0.0000
    131 H18Z      -16.2780   -7.8150   -0.7870 H         1 DOP1        0.0000
@<TRIPOS>BOND
     1   57   56 1 
     2   59   58 1 
     3   56   58 2 
     4   56   53 1 
     5   55   53 1 
     6   51   50 1 
     7   58   60 1 
     8   53   50 1 
     9   53   54 1 
    10   62   60 1 
    11   50   52 1 
    12   50   47 1 
    13   45   44 1 
    14   60   61 1 
    15   60   63 1 
    16   49   47 1 
    17   47   44 1 
    18   47   48 1 
    19   39   38 1 
    20   64   63 1 
    21   44   46 1 
    22   44   41 1 
    23   43   41 1 
    24   63   65 1 
    25   63   66 1 
    26   41   38 1 
    27   41   42 1 
    28   36   35 1 
    29   89   88 1 
    30   37   35 1 
    31   38   40 1 
    32   38   26 1 
    33   90   88 1 
    34   96   94 1 
    35   95   94 1 
    36  108  107 1 
    37  102  100 1 
    38  101  100 1 
    39   68   66 1 
    40  114  113 1 
    41  120  119 1 
    42   28   26 1 
    43   25   24 2 
    44  126  125 1 
    45    9    8 1 
    46   66   67 1 
    47   66   69 1 
    48  109  107 1 
    49   35   33 1 
    50   35   85 1 
    51  115  113 1 
    52   88   85 1 
    53   88   91 1 
    54  121  119 1 
    55   94   91 1 
    56   94   97 1 
    57  127  125 1 
    58  100   97 1 
    59  100  103 1 
    60   26   24 1 
    61   26   27 1 
    62  107  105 1 
    63  107  110 1 
    64   24   23 1 
    65    4    5 1 
    66    4    1 1 
    67  113  110 1 
    68  113  116 1 
    69    8    6 1 
    70  119  116 1 
    71  119  122 1 
    72  125  122 1 
    73  125  128 1 
    74   22   21 1 
    75   70   69 1 
    76   34   33 2 
    77   33   32 1 
    78   85   87 1 
    79   85   86 1 
    80  131  128 1 
    81   91   93 1 
    82   91   92 1 
    83   97   99 1 
    84   97   98 1 
    85   11   10 1 
    86   12   10 1 
    87  103  105 2 
    88  103  104 1 
    89   69   71 1 
    90   69   72 1 
    91  105  106 1 
    92  110  112 1 
    93  110  111 1 
    94   23   21 1 
    95  116  118 1 
    96  116  117 1 
    97  122  124 1 
    98  122  123 1 
    99  128  130 1 
   100  128  129 1 
   101   32   29 1 
   102   21   29 1 
   103   21   18 1 
   104   10    6 1 
   105   10   16 1 
   106    6    1 1 
   107    6    7 1 
   108    1    2 1 
   109    1    3 1 
   110   19   18 1 
   111   74   72 1 
   112   72   73 1 
   113   72   75 1 
   114   29   31 1 
   115   29   30 1 
   116   18   17 1 
   117   18   20 1 
   118   16   13 1 
   119   17   13 1 
   120   76   75 1 
   121   75   77 1 
   122   75   78 1 
   123   13   14 2 
   124   13   15 1 
   125   80   78 1 
   126   78   79 1 
   127   78   81 1 
   128   82   81 1 
   129   81   83 1 
   130   81   84 1 
