@<TRIPOS>MOLECULE
C:\Users\Praveer\PycharmProjects\pdb_to_mol2_converter\data\pdb\dops.pdb
  131   130     0     0     0
SMALL
GASTEIGER

@<TRIPOS>ATOM
      1 N          -0.0250    0.0150    0.0020 N.4       1 DOP1        0.0000
      2 HN1        -0.3220   -0.9530    0.2320 H         1 DOP1        0.0000
      3 HN2        -0.3480    0.3670   -0.9420 H         1 DOP1        0.0000
      4 HN3        -0.3090    0.6710    0.7500 H         1 DOP1        0.0000
      5 C12         1.4680    0.0230   -0.0280 C.3       1 DOP1        0.0000
      6 H12A        1.7800   -0.4490   -0.9490 H         1 DOP1        0.0000
      7 C13         2.0450   -0.8170    1.1260 C.2       1 DOP1        0.0000
      8 O13A        1.2350   -1.4090    1.8940 O.co2     1 DOP1        0.0000
      9 O13B        3.2930   -0.8890    1.2320 O.co2     1 DOP1        0.0000
     10 C11         1.9900    1.4990    0.0050 C.3       1 DOP1        0.0000
     11 H11A        3.0540    1.5080   -0.3310 H         1 DOP1        0.0000
     12 H11B        1.9930    1.8440    1.0630 H         1 DOP1        0.0000
     13 P           0.9220    2.2260   -2.3070 P.3       1 DOP1        0.0000
     14 O13        -0.1740    1.2270   -2.3740 O.3       1 DOP1        0.0000
     15 O14         0.7370    3.5290   -2.9670 O.2       1 DOP1        0.0000
     16 O12         1.2030    2.4220   -0.7620 O.3       1 DOP1        0.0000
     17 O11         2.2600    1.5500   -2.7990 O.3       1 DOP1        0.0000
     18 C1          2.3050    0.6750   -3.9260 C.3       1 DOP1        0.0000
     19 HA          1.3110    0.2490   -4.2050 H         1 DOP1        0.0000
     20 HB          2.9510   -0.1850   -3.6450 H         1 DOP1        0.0000
     21 C2          2.9310    1.3560   -5.1840 C.3       1 DOP1        0.0000
     22 HS          2.1090    1.5970   -5.8990 H         1 DOP1        0.0000
     23 O21         3.9010    0.4800   -5.7970 O.3       1 DOP1        0.0000
     24 C21         3.3850   -0.6060   -6.3470 C.2       1 DOP1        0.0000
     25 O22         2.2020   -0.8590   -6.4690 O.2       1 DOP1        0.0000
     26 C22         4.5280   -1.5130   -6.8070 C.3       1 DOP1        0.0000
     27 H2R         5.2280   -1.6400   -5.9560 H         1 DOP1        0.0000
     28 H2S         5.0600   -0.9990   -7.6330 H         1 DOP1        0.0000
     29 C3          3.6190    2.7130   -4.8320 C.3       1 DOP1        0.0000
     30 HX          4.2600    2.5240   -3.9430 H         1 DOP1        0.0000
     31 HY          2.8420    3.4490   -4.5220 H         1 DOP1        0.0000
     32 O31         4.4600    3.2370   -5.8860 O.3       1 DOP1        0.0000
     33 C31         3.8160    3.7660   -6.9160 C.2       1 DOP1        0.0000
     34 O32         2.6110    3.8080   -7.0640 O.2       1 DOP1        0.0000
     35 C32         4.8110    4.3590   -7.9230 C.3       1 DOP1        0.0000
     36 H2X         4.7500    5.4630   -7.8310 H         1 DOP1        0.0000
     37 H2Y         4.4530    4.0760   -8.9350 H         1 DOP1        0.0000
     38 C23         4.0170   -2.8920   -7.2790 C.3       1 DOP1        0.0000
     39 H3R         3.3180   -2.7590   -8.1370 H         1 DOP1        0.0000
     40 H3S         3.4460   -3.3820   -6.4580 H         1 DOP1        0.0000
     41 C24         5.1550   -3.8280   -7.7100 C.3       1 DOP1        0.0000
     42 H4R         5.8560   -3.9740   -6.8580 H         1 DOP1        0.0000
     43 H4S         5.7240   -3.3510   -8.5390 H         1 DOP1        0.0000
     44 C25         4.6380   -5.1960   -8.1770 C.3       1 DOP1        0.0000
     45 H5R         3.9040   -5.0410   -9.0000 H         1 DOP1        0.0000
     46 H5S         4.1030   -5.6920   -7.3370 H         1 DOP1        0.0000
     47 C26         5.7560   -6.1190   -8.6800 C.3       1 DOP1        0.0000
     48 H6R         6.4880   -6.2960   -7.8610 H         1 DOP1        0.0000
     49 H6S         6.2950   -5.6140   -9.5130 H         1 DOP1        0.0000
     50 C27         5.2190   -7.4690   -9.1790 C.3       1 DOP1        0.0000
     51 H7R         4.4420   -7.2770   -9.9530 H         1 DOP1        0.0000
     52 H7S         4.7300   -7.9960   -8.3290 H         1 DOP1        0.0000
     53 C28         6.3270   -8.3590   -9.7730 C.3       1 DOP1        0.0000
     54 H8R         7.1060   -8.4970   -8.9890 H         1 DOP1        0.0000
     55 H8S         6.8070   -7.8090  -10.6130 H         1 DOP1        0.0000
     56 C29         5.7780   -9.6750  -10.2670 C.2       1 DOP1        0.0000
     57 H9R         4.9210   -9.5870  -10.9530 H         1 DOP1        0.0000
     58 C210        6.2100  -10.9040   -9.9280 C.2       1 DOP1        0.0000
     59 H10R        5.7020  -11.7820  -10.3560 H         1 DOP1        0.0000
     60 C211        7.3630  -11.2240   -9.0080 C.3       1 DOP1        0.0000
     61 H11R        8.1190  -10.4070   -9.0030 H         1 DOP1        0.0000
     62 H11S        7.8920  -12.1350   -9.3650 H         1 DOP1        0.0000
     63 C212        6.8990  -11.4570   -7.5590 C.3       1 DOP1        0.0000
     64 H12R        6.1680  -12.2960   -7.5270 H         1 DOP1        0.0000
     65 H12S        6.3820  -10.5430   -7.1850 H         1 DOP1        0.0000
     66 C213        8.0670  -11.7800   -6.6180 C.3       1 DOP1        0.0000
     67 H13R        8.8000  -10.9420   -6.6470 H         1 DOP1        0.0000
     68 H13S        8.5860  -12.6960   -6.9820 H         1 DOP1        0.0000
     69 C214        7.6150  -12.0000   -5.1680 C.3       1 DOP1        0.0000
     70 H14R        6.8860  -12.8400   -5.1370 H         1 DOP1        0.0000
     71 H14S        7.0930  -11.0850   -4.8070 H         1 DOP1        0.0000
     72 C215        8.7860  -12.3150   -4.2260 C.3       1 DOP1        0.0000
     73 H15R        9.5140  -11.4730   -4.2570 H         1 DOP1        0.0000
     74 H15S        9.3090  -13.2280   -4.5890 H         1 DOP1        0.0000
     75 C216        8.3350  -12.5370   -2.7760 C.3       1 DOP1        0.0000
     76 H16R        7.6060  -13.3780   -2.7460 H         1 DOP1        0.0000
     77 H16S        7.8130  -11.6240   -2.4120 H         1 DOP1        0.0000
     78 C217        9.5050  -12.8550   -1.8350 C.3       1 DOP1        0.0000
     79 H17R       10.2330  -12.0130   -1.8720 H         1 DOP1        0.0000
     80 H17S       10.0290  -13.7640   -2.2100 H         1 DOP1        0.0000
     81 C218        9.0730  -13.0850   -0.3850 C.3       1 DOP1        0.0000
     82 H18R        8.3630  -13.9380   -0.3210 H         1 DOP1        0.0000
     83 H18S        8.5690  -12.1800    0.0190 H         1 DOP1        0.0000
     84 H18T        9.9530  -13.3120    0.2540 H         1 DOP1        0.0000
     85 C33         6.2780    3.9010   -7.7400 C.3       1 DOP1        0.0000
     86 H3X         6.3330    2.7910   -7.8070 H         1 DOP1        0.0000
     87 H3Y         6.6430    4.1940   -6.7290 H         1 DOP1        0.0000
     88 C34         7.2080    4.5120   -8.7970 C.3       1 DOP1        0.0000
     89 H4X         7.1840    5.6220   -8.7080 H         1 DOP1        0.0000
     90 H4Y         6.8300    4.2460   -9.8100 H         1 DOP1        0.0000
     91 C35         8.6570    4.0260   -8.6640 C.3       1 DOP1        0.0000
     92 H5X         8.6740    2.9170   -8.7560 H         1 DOP1        0.0000
     93 H5Y         9.0440    4.2870   -7.6540 H         1 DOP1        0.0000
     94 C36         9.5810    4.6290   -9.7310 C.3       1 DOP1        0.0000
     95 H6X         9.6140    5.7350   -9.6080 H         1 DOP1        0.0000
     96 H6Y         9.1590    4.4140  -10.7390 H         1 DOP1        0.0000
     97 C37        11.0090    4.0680   -9.6630 C.3       1 DOP1        0.0000
     98 H7X        10.9550    2.9600   -9.7660 H         1 DOP1        0.0000
     99 H7Y        11.4390    4.2950   -8.6610 H         1 DOP1        0.0000
    100 C38        11.9210    4.6480  -10.7600 C.3       1 DOP1        0.0000
    101 H8X        11.9560    5.7520  -10.6230 H         1 DOP1        0.0000
    102 H8Y        11.4430    4.4620  -11.7470 H         1 DOP1        0.0000
    103 C39        13.2930    4.0190  -10.7340 C.2       1 DOP1        0.0000
    104 H9X        13.2910    2.9250  -10.8610 H         1 DOP1        0.0000
    105 C310       14.4750    4.6410  -10.5590 C.2       1 DOP1        0.0000
    106 H10X       15.3920    4.0310  -10.5540 H         1 DOP1        0.0000
    107 C311       14.7110    6.1190  -10.3640 C.3       1 DOP1        0.0000
    108 H11X       13.8160    6.7260  -10.6230 H         1 DOP1        0.0000
    109 H11Y       15.5280    6.4620  -11.0370 H         1 DOP1        0.0000
    110 C312       15.1060    6.4430   -8.9120 C.3       1 DOP1        0.0000
    111 H12X       16.0220    5.8730   -8.6350 H         1 DOP1        0.0000
    112 H12Y       14.2880    6.1250   -8.2250 H         1 DOP1        0.0000
    113 C313       15.3760    7.9390   -8.6970 C.3       1 DOP1        0.0000
    114 H13X       14.4600    8.5150   -8.9570 H         1 DOP1        0.0000
    115 H13Y       16.1880    8.2650   -9.3860 H         1 DOP1        0.0000
    116 C314       15.7820    8.2630   -7.2530 C.3       1 DOP1        0.0000
    117 H14X       16.6980    7.6850   -6.9950 H         1 DOP1        0.0000
    118 H14Y       14.9710    7.9350   -6.5650 H         1 DOP1        0.0000
    119 C315       16.0550    9.7570   -7.0350 C.3       1 DOP1        0.0000
    120 H15X       15.1360   10.3350   -7.2810 H         1 DOP1        0.0000
    121 H15Y       16.8590   10.0860   -7.7310 H         1 DOP1        0.0000
    122 C316       16.4790   10.0760   -5.5940 C.3       1 DOP1        0.0000
    123 H16X       17.3980    9.4970   -5.3490 H         1 DOP1        0.0000
    124 H16Y       15.6770    9.7460   -4.8960 H         1 DOP1        0.0000
    125 C317       16.7540   11.5690   -5.3730 C.3       1 DOP1        0.0000
    126 H17X       15.8320   12.1430   -5.6210 H         1 DOP1        0.0000
    127 H17Y       17.5500   11.8950   -6.0820 H         1 DOP1        0.0000
    128 C318       17.1870   11.9010   -3.9430 C.3       1 DOP1        0.0000
    129 H18X       18.1210   11.3580   -3.6830 H         1 DOP1        0.0000
    130 H18Y       16.3970   11.6060   -3.2190 H         1 DOP1        0.0000
    131 H18Z       17.3730   12.9920   -3.8340 H         1 DOP1        0.0000
@<TRIPOS>BOND
     1  102  100 1 
     2  109  107 1 
     3   57   56 1 
     4  104  103 1 
     5  100  103 1 
     6  100  101 1 
     7  100   97 1 
     8   96   94 1 
     9  103  105 2 
    10  108  107 1 
    11   55   53 1 
    12  105  106 1 
    13  105  107 1 
    14  107  110 1 
    15   59   58 1 
    16   56   58 2 
    17   56   53 1 
    18   51   50 1 
    19   58   60 1 
    20   90   88 1 
    21   53   50 1 
    22   53   54 1 
    23   98   97 1 
    24   94   97 1 
    25   94   95 1 
    26   94   91 1 
    27   97   99 1 
    28   49   47 1 
    29  115  113 1 
    30   62   60 1 
    31   50   47 1 
    32   50   52 1 
    33   60   61 1 
    34   60   63 1 
    35   45   44 1 
    36  114  113 1 
    37   37   35 1 
    38  110  113 1 
    39  110  111 1 
    40  110  112 1 
    41   88   89 1 
    42   88   91 1 
    43   88   85 1 
    44   92   91 1 
    45  113  116 1 
    46   47   44 1 
    47   47   48 1 
    48   91   93 1 
    49   43   41 1 
    50   44   41 1 
    51   44   46 1 
    52   39   38 1 
    53   35   36 1 
    54   35   85 1 
    55   35   33 1 
    56   86   85 1 
    57   85   87 1 
    58  121  119 1 
    59   41   38 1 
    60   41   42 1 
    61   28   26 1 
    62   63   64 1 
    63   63   65 1 
    64   63   66 1 
    65  120  119 1 
    66   38   26 1 
    67   38   40 1 
    68  116  119 1 
    69  116  117 1 
    70  116  118 1 
    71   34   33 2 
    72  119  122 1 
    73   68   66 1 
    74   33   32 1 
    75   26   24 1 
    76   26   27 1 
    77   67   66 1 
    78   66   69 1 
    79   25   24 2 
    80   24   23 1 
    81  127  125 1 
    82   22   21 1 
    83   32   29 1 
    84   23   21 1 
    85  126  125 1 
    86  122  125 1 
    87  122  123 1 
    88  122  124 1 
    89  125  128 1 
    90   21   29 1 
    91   21   18 1 
    92   69   70 1 
    93   69   71 1 
    94   69   72 1 
    95   29   31 1 
    96   29   30 1 
    97   74   72 1 
    98   73   72 1 
    99   72   75 1 
   100   19   18 1 
   101  128  131 1 
   102  128  129 1 
   103  128  130 1 
   104   18   20 1 
   105   18   17 1 
   106   15   13 2 
   107   17   13 1 
   108   75   76 1 
   109   75   77 1 
   110   75   78 1 
   111   14   13 1 
   112   13   16 1 
   113   80   78 1 
   114   79   78 1 
   115   78   81 1 
   116    6    5 1 
   117    3    1 1 
   118   16   10 1 
   119   81   82 1 
   120   81   83 1 
   121   81   84 1 
   122   11   10 1 
   123    5    1 1 
   124    5   10 1 
   125    5    7 1 
   126    1    2 1 
   127    1    4 1 
   128   10   12 1 
   129    7    9 ar
   130    7    8 ar
