@<TRIPOS>MOLECULE
C:\Users\Praveer\PycharmProjects\pdb_to_mol2_converter\data\pdb\dpa.pdb
   57    56     0     0     0
SMALL
GASTEIGER

@<TRIPOS>ATOM
      1 O1          0.0310    0.0410   -0.1240 O.co2     1 DPA1        0.0000
      2 O2          2.0020   -0.9910   -0.0910 O.co2     1 DPA1        0.0000
      3 C1          1.2880    0.0470   -0.0810 C.2       1 DPA1        0.0000
      4 C2          2.0260    1.3840   -0.0090 C.3       1 DPA1        0.0000
      5 H2R         2.7230    1.4230   -0.8700 H         1 DPA1        0.0000
      6 H2S         2.6180    1.3780    0.9290 H         1 DPA1        0.0000
      7 C3          1.0840    2.6090   -0.0340 C.3       1 DPA1        0.0000
      8 H3R         0.3570    2.5190    0.8060 H         1 DPA1        0.0000
      9 H3S         0.4980    2.5940   -0.9800 H         1 DPA1        0.0000
     10 C4          1.8410    3.9380    0.0890 C.3       1 DPA1        0.0000
     11 H4R         2.5700    4.0180   -0.7480 H         1 DPA1        0.0000
     12 H4S         2.4150    3.9300    1.0420 H         1 DPA1        0.0000
     13 C5          0.9030    5.1540    0.0720 C.3       1 DPA1        0.0000
     14 H5R         0.1410    5.0130    0.8710 H         1 DPA1        0.0000
     15 H5S         0.3690    5.1740   -0.9060 H         1 DPA1        0.0000
     16 C6          1.6480    6.4840    0.2910 C.3       1 DPA1        0.0000
     17 H6R         2.4300    6.5730   -0.4940 H         1 DPA1        0.0000
     18 H6S         2.1760    6.4260    1.2690 H         1 DPA1        0.0000
     19 C7          0.6920    7.6520    0.2950 C.2       1 DPA1        0.0000
     20 H7R        -0.1960    7.5040    0.9300 H         1 DPA1        0.0000
     21 C8          0.8070    8.8080   -0.3890 C.2       1 DPA1        0.0000
     22 H8R         0.0090    9.5590   -0.2780 H         1 DPA1        0.0000
     23 C9          1.9300    9.2270   -1.3100 C.3       1 DPA1        0.0000
     24 H9R         1.4890    9.5880   -2.2650 H         1 DPA1        0.0000
     25 H9S         2.5690    8.3600   -1.5880 H         1 DPA1        0.0000
     26 C10         2.7820   10.3200   -0.7080 C.2       1 DPA1        0.0000
     27 H10R        2.3460   10.8500    0.1550 H         1 DPA1        0.0000
     28 C11         4.0120   10.6810   -1.1200 C.2       1 DPA1        0.0000
     29 H11R        4.5310   11.4890   -0.5790 H         1 DPA1        0.0000
     30 C12         4.7870   10.0880   -2.2730 C.3       1 DPA1        0.0000
     31 H12R        4.1410    9.4380   -2.9030 H         1 DPA1        0.0000
     32 H12S        5.5760    9.4220   -1.8610 H         1 DPA1        0.0000
     33 C13         5.3810   11.1730   -3.1420 C.2       1 DPA1        0.0000
     34 H13R        4.6570   11.9250   -3.4960 H         1 DPA1        0.0000
     35 C14         6.6720   11.3060   -3.5080 C.2       1 DPA1        0.0000
     36 H14R        6.9470   12.1630   -4.1430 H         1 DPA1        0.0000
     37 C15         7.8060   10.3770   -3.1380 C.3       1 DPA1        0.0000
     38 H15R        7.4230    9.3430   -2.9890 H         1 DPA1        0.0000
     39 H15S        8.2170   10.6940   -2.1540 H         1 DPA1        0.0000
     40 C16         8.9270   10.3990   -4.1520 C.2       1 DPA1        0.0000
     41 H16R        9.2830   11.4030   -4.4350 H         1 DPA1        0.0000
     42 C17         9.5150    9.3260   -4.7170 C.2       1 DPA1        0.0000
     43 H17R       10.3140    9.4920   -5.4570 H         1 DPA1        0.0000
     44 C18         9.1660    7.8830   -4.4360 C.3       1 DPA1        0.0000
     45 H18R        8.2560    7.6290   -5.0220 H         1 DPA1        0.0000
     46 H18S        8.8950    7.7640   -3.3640 H         1 DPA1        0.0000
     47 C19        10.2600    6.8960   -4.7710 C.2       1 DPA1        0.0000
     48 H19R       11.2010    7.3560   -5.1130 H         1 DPA1        0.0000
     49 C20        10.2260    5.5480   -4.7010 C.2       1 DPA1        0.0000
     50 H20R       11.1430    5.0150   -4.9980 H         1 DPA1        0.0000
     51 C21         9.1280    4.5970   -4.2700 C.3       1 DPA1        0.0000
     52 H21R        9.5590    3.8970   -3.5170 H         1 DPA1        0.0000
     53 H21S        8.8480    3.9650   -5.1440 H         1 DPA1        0.0000
     54 C22         7.8230    5.1450   -3.6670 C.3       1 DPA1        0.0000
     55 H22R        7.2750    5.7670   -4.4050 H         1 DPA1        0.0000
     56 H22S        8.0320    5.7570   -2.7640 H         1 DPA1        0.0000
     57 H22T        7.1570    4.3080   -3.3670 H         1 DPA1        0.0000
@<TRIPOS>BOND
     1   43   42 1 
     2   53   51 1 
     3   48   47 1 
     4   45   44 1 
     5   50   49 1 
     6   47   49 2 
     7   47   44 1 
     8   42   44 1 
     9   42   40 2 
    10   49   51 1 
    11   44   46 1 
    12   41   40 1 
    13   55   54 1 
    14   51   54 1 
    15   51   52 1 
    16   40   37 1 
    17   36   35 1 
    18   54   57 1 
    19   54   56 1 
    20   35   33 2 
    21   35   37 1 
    22   34   33 1 
    23   33   30 1 
    24   37   38 1 
    25   37   39 1 
    26   31   30 1 
    27   30   32 1 
    28   30   28 1 
    29   24   23 1 
    30   25   23 1 
    31   23   26 1 
    32   23   21 1 
    33   28   26 2 
    34   28   29 1 
    35    9    7 1 
    36   15   13 1 
    37    5    4 1 
    38   11   10 1 
    39   26   27 1 
    40   17   16 1 
    41   21   22 1 
    42   21   19 2 
    43    1    3 ar
    44    2    3 ar
    45    3    4 1 
    46    7    4 1 
    47    7   10 1 
    48    7    8 1 
    49    4    6 1 
    50   13   10 1 
    51   13   16 1 
    52   13   14 1 
    53   10   12 1 
    54   16   19 1 
    55   16   18 1 
    56   19   20 1 
