@<TRIPOS>MOLECULE
C:\Users\Praveer\PycharmProjects\pdb_to_mol2_converter\data\pdb\dpap.pdb
   58    57     0     0     0
SMALL
GASTEIGER

@<TRIPOS>ATOM
      1 H1          0.0170   -0.0090    0.1190 H         1 DPA1        0.0000
      2 O1          0.9730   -0.0110    0.0840 O.3       1 DPA1        0.0000
      3 O2          0.5490    2.1930    0.0540 O.2       1 DPA1        0.0000
      4 C1          1.3830    1.3050    0.0420 C.2       1 DPA1        0.0000
      5 C2          2.9010    1.5140   -0.0240 C.3       1 DPA1        0.0000
      6 H2R         3.1680    2.2400    0.7720 H         1 DPA1        0.0000
      7 H2S         3.1260    1.9800   -1.0060 H         1 DPA1        0.0000
      8 C3          3.7480    0.2300    0.1420 C.3       1 DPA1        0.0000
      9 H3R         3.4770   -0.5060   -0.6500 H         1 DPA1        0.0000
     10 H3S         3.5320   -0.2390    1.1290 H         1 DPA1        0.0000
     11 C4          5.2540    0.5120    0.0470 C.3       1 DPA1        0.0000
     12 H4R         5.5440    1.2530    0.8250 H         1 DPA1        0.0000
     13 H4S         5.4760    0.9620   -0.9470 H         1 DPA1        0.0000
     14 C5          6.1030   -0.7560    0.2200 C.3       1 DPA1        0.0000
     15 H5R         5.7550   -1.5140   -0.5180 H         1 DPA1        0.0000
     16 H5S         5.9290   -1.1680    1.2400 H         1 DPA1        0.0000
     17 C6          7.6050   -0.4870    0.0110 C.3       1 DPA1        0.0000
     18 H6R         7.9180    0.3010    0.7320 H         1 DPA1        0.0000
     19 H6S         7.7420   -0.0690   -1.0110 H         1 DPA1        0.0000
     20 C7          8.4250   -1.7450    0.1610 C.2       1 DPA1        0.0000
     21 H7R         7.9220   -2.6620   -0.1820 H         1 DPA1        0.0000
     22 C8          9.6670   -1.8460    0.6750 C.2       1 DPA1        0.0000
     23 H8R        10.1300   -2.8440    0.7260 H         1 DPA1        0.0000
     24 C9         10.5360   -0.7220    1.1930 C.3       1 DPA1        0.0000
     25 H9R        10.6960   -0.8720    2.2830 H         1 DPA1        0.0000
     26 H9S        10.0280    0.2630    1.0970 H         1 DPA1        0.0000
     27 C10        11.8790   -0.6620    0.5010 C.2       1 DPA1        0.0000
     28 H10R       12.1060   -1.4830   -0.1980 H         1 DPA1        0.0000
     29 C11        12.7910    0.3160    0.6610 C.2       1 DPA1        0.0000
     30 H11R       13.7320    0.2590    0.0900 H         1 DPA1        0.0000
     31 C12        12.6530    1.5170    1.5680 C.3       1 DPA1        0.0000
     32 H12R       11.8820    1.3380    2.3510 H         1 DPA1        0.0000
     33 H12S       12.2760    2.3720    0.9640 H         1 DPA1        0.0000
     34 C13        13.9600    1.8620    2.2430 C.2       1 DPA1        0.0000
     35 H13R       14.4850    1.0100    2.7050 H         1 DPA1        0.0000
     36 C14        14.5220    3.0850    2.3250 C.2       1 DPA1        0.0000
     37 H14R       15.4870    3.1840    2.8480 H         1 DPA1        0.0000
     38 C15        13.9390    4.3620    1.7640 C.3       1 DPA1        0.0000
     39 H15R       12.8280    4.3380    1.8400 H         1 DPA1        0.0000
     40 H15S       14.1660    4.4060    0.6760 H         1 DPA1        0.0000
     41 C16        14.4970    5.6050    2.4190 C.2       1 DPA1        0.0000
     42 H16R       15.5890    5.6090    2.5720 H         1 DPA1        0.0000
     43 C17        13.7890    6.6810    2.8150 C.2       1 DPA1        0.0000
     44 H17R       14.3240    7.5180    3.2910 H         1 DPA1        0.0000
     45 C18        12.2940    6.8470    2.6690 C.3       1 DPA1        0.0000
     46 H18R       11.8000    6.2670    3.4800 H         1 DPA1        0.0000
     47 H18S       11.9610    6.3940    1.7090 H         1 DPA1        0.0000
     48 C19        11.8100    8.2780    2.7260 C.2       1 DPA1        0.0000
     49 H19R       12.6090    9.0290    2.8400 H         1 DPA1        0.0000
     50 C20        10.5410    8.7390    2.6580 C.2       1 DPA1        0.0000
     51 H20R       10.4090    9.8300    2.7250 H         1 DPA1        0.0000
     52 C21         9.2210    8.0140    2.4960 C.3       1 DPA1        0.0000
     53 H21R        8.6670    8.4950    1.6570 H         1 DPA1        0.0000
     54 H21S        8.6060    8.1970    3.4070 H         1 DPA1        0.0000
     55 C22         9.1990    6.4980    2.2270 C.3       1 DPA1        0.0000
     56 H22R        9.6460    5.9400    3.0760 H         1 DPA1        0.0000
     57 H22S        9.7580    6.2550    1.2990 H         1 DPA1        0.0000
     58 H22T        8.1530    6.1460    2.1000 H         1 DPA1        0.0000
@<TRIPOS>BOND
     1   19   17 1 
     2    7    5 1 
     3   13   11 1 
     4    9    8 1 
     5   15   14 1 
     6   28   27 1 
     7   21   20 1 
     8    5    4 1 
     9    5    8 1 
    10    5    6 1 
    11   17   20 1 
    12   17   14 1 
    13   17   18 1 
    14    4    3 2 
    15    4    2 1 
    16   11    8 1 
    17   11   14 1 
    18   11   12 1 
    19    2    1 1 
    20   30   29 1 
    21    8   10 1 
    22   20   22 2 
    23   14   16 1 
    24   27   29 2 
    25   27   24 1 
    26   29   31 1 
    27   22   23 1 
    28   22   24 1 
    29   40   38 1 
    30   33   31 1 
    31   26   24 1 
    32   24   25 1 
    33   57   55 1 
    34   31   34 1 
    35   31   32 1 
    36   53   52 1 
    37   47   45 1 
    38   38   39 1 
    39   38   36 1 
    40   38   41 1 
    41   58   55 1 
    42   55   52 1 
    43   55   56 1 
    44   34   36 2 
    45   34   35 1 
    46   36   37 1 
    47   41   42 1 
    48   41   43 2 
    49   52   50 1 
    50   52   54 1 
    51   50   51 1 
    52   50   48 2 
    53   45   48 1 
    54   45   43 1 
    55   45   46 1 
    56   48   49 1 
    57   43   44 1 
