@<TRIPOS>MOLECULE
C:\Users\Praveer\PycharmProjects\pdb_to_mol2_converter\data\pdb\dpc.pdb
   61    60     0     0     0
SMALL
GASTEIGER

@<TRIPOS>ATOM
      1 N           6.0990    6.0650    0.0020 N.4       1 DPC1        0.0000
      2 C13         5.7540    7.5240   -0.0030 C.3       1 DPC1        0.0000
      3 H13A        5.1720    7.7820   -0.8810 H         1 DPC1        0.0000
      4 H13B        6.6520    8.1300   -0.0060 H         1 DPC1        0.0000
      5 H13C        5.1750    7.7870    0.8740 H         1 DPC1        0.0000
      6 C14         6.9050    5.7360   -1.2200 C.3       1 DPC1        0.0000
      7 H14A        7.8310    6.2930   -1.2470 H         1 DPC1        0.0000
      8 H14B        6.3450    5.9440   -2.1240 H         1 DPC1        0.0000
      9 H14C        7.1430    4.6750   -1.2320 H         1 DPC1        0.0000
     10 C15         6.9140    5.7510    1.2230 C.3       1 DPC1        0.0000
     11 H15A        6.3550    5.9610    2.1280 H         1 DPC1        0.0000
     12 H15B        7.8370    6.3120    1.2430 H         1 DPC1        0.0000
     13 H15C        7.1550    4.6910    1.2440 H         1 DPC1        0.0000
     14 C12         4.8360    5.2210    0.0150 C.3       1 DPC1        0.0000
     15 H12A        4.2120    5.4300   -0.8470 H         1 DPC1        0.0000
     16 H12B        4.2260    5.4430    0.8840 H         1 DPC1        0.0000
     17 C11         5.0510    3.7100    0.0320 C.3       1 DPC1        0.0000
     18 H11A        5.6730    3.4050    0.9060 H         1 DPC1        0.0000
     19 H11B        5.5500    3.3740   -0.9090 H         1 DPC1        0.0000
     20 P           3.6780    1.5700    0.1750 P.3       1 DPC1        0.0000
     21 O13         4.1280    1.0850   -1.1470 O.2       1 DPC1        0.0000
     22 O14         4.4240    1.1160    1.3650 O.3       1 DPC1        0.0000
     23 O11         2.1260    1.3020    0.3680 O.3       1 DPC1        0.0000
     24 O12         3.7460    3.1630    0.1370 O.3       1 DPC1        0.0000
     25 C1          1.5660    0.1220   -0.2070 C.3       1 DPC1        0.0000
     26 HA          1.8790   -0.7830    0.3670 H         1 DPC1        0.0000
     27 HB          1.8840   -0.0070   -1.2710 H         1 DPC1        0.0000
     28 C2          0.0390    0.2420   -0.1880 C.3       1 DPC1        0.0000
     29 HS         -0.2340    1.2890   -0.4510 H         1 DPC1        0.0000
     30 HR         -0.3300    0.0470    0.8420 H         1 DPC1        0.0000
     31 C3         -0.6210   -0.7090   -1.1980 C.3       1 DPC1        0.0000
     32 HX         -0.2820   -1.7500   -1.0020 H         1 DPC1        0.0000
     33 HY         -0.2640   -0.4220   -2.2130 H         1 DPC1        0.0000
     34 C31        -2.1550   -0.6620   -1.1830 C.3       1 DPC1        0.0000
     35 H1X        -2.4900    0.3990   -1.2190 H         1 DPC1        0.0000
     36 H1Y        -2.5240   -1.1050   -0.2320 H         1 DPC1        0.0000
     37 C32        -2.7590   -1.4150   -2.3780 C.3       1 DPC1        0.0000
     38 H2X        -2.3990   -2.4670   -2.3650 H         1 DPC1        0.0000
     39 H2Y        -2.3910   -0.9440   -3.3180 H         1 DPC1        0.0000
     40 C33        -4.2920   -1.4060   -2.3860 C.3       1 DPC1        0.0000
     41 H3X        -4.6510   -0.3520   -2.3670 H         1 DPC1        0.0000
     42 H3Y        -4.6660   -1.9080   -1.4660 H         1 DPC1        0.0000
     43 C34        -4.8730   -2.1100   -3.6200 C.3       1 DPC1        0.0000
     44 H4X        -4.5110   -3.1620   -3.6440 H         1 DPC1        0.0000
     45 H4Y        -4.5000   -1.6030   -4.5380 H         1 DPC1        0.0000
     46 C35        -6.4060   -2.1030   -3.6290 C.3       1 DPC1        0.0000
     47 H5X        -6.7660   -1.0500   -3.6050 H         1 DPC1        0.0000
     48 H5Y        -6.7770   -2.6080   -2.7090 H         1 DPC1        0.0000
     49 C36        -6.9980   -2.8060   -4.8570 C.3       1 DPC1        0.0000
     50 H6X        -6.6400   -3.8600   -4.8850 H         1 DPC1        0.0000
     51 H6Y        -6.6360   -2.3000   -5.7800 H         1 DPC1        0.0000
     52 C37        -8.5320   -2.7970   -4.8460 C.3       1 DPC1        0.0000
     53 H7X        -8.8900   -1.7430   -4.8190 H         1 DPC1        0.0000
     54 H7Y        -8.8930   -3.2990   -3.9200 H         1 DPC1        0.0000
     55 C38        -9.1380   -3.5000   -6.0660 C.3       1 DPC1        0.0000
     56 H8X        -8.7720   -4.5520   -6.0920 H         1 DPC1        0.0000
     57 H8Y        -8.7720   -2.9960   -6.9890 H         1 DPC1        0.0000
     58 C39       -10.6690   -3.4980   -6.0620 C.3       1 DPC1        0.0000
     59 H9X       -11.0550   -2.4560   -6.0590 H         1 DPC1        0.0000
     60 H9Y       -11.0550   -4.0170   -5.1580 H         1 DPC1        0.0000
     61 H9Z       -11.0620   -4.0170   -6.9620 H         1 DPC1        0.0000
@<TRIPOS>BOND
     1   57   55 1 
     2   61   58 1 
     3   56   55 1 
     4   55   58 1 
     5   55   52 1 
     6   58   59 1 
     7   58   60 1 
     8   51   49 1 
     9   50   49 1 
    10   49   52 1 
    11   49   46 1 
    12   52   53 1 
    13   52   54 1 
    14   45   43 1 
    15   44   43 1 
    16   46   43 1 
    17   46   47 1 
    18   46   48 1 
    19   43   40 1 
    20   39   37 1 
    21   40   37 1 
    22   40   41 1 
    23   40   42 1 
    24   37   38 1 
    25   37   34 1 
    26   33   31 1 
    27    8    6 1 
    28   27   25 1 
    29    7    6 1 
    30    9    6 1 
    31    6    1 1 
    32   35   34 1 
    33   31   34 1 
    34   31   32 1 
    35   31   28 1 
    36   34   36 1 
    37   21   20 2 
    38   19   17 1 
    39    3    2 1 
    40   15   14 1 
    41   29   28 1 
    42   25   28 1 
    43   25   26 1 
    44   25   23 1 
    45   28   30 1 
    46    4    2 1 
    47    2    1 1 
    48    2    5 1 
    49    1   14 1 
    50    1   10 1 
    51   14   17 1 
    52   14   16 1 
    53   17   24 1 
    54   17   18 1 
    55   24   20 1 
    56   20   23 1 
    57   20   22 1 
    58   10   12 1 
    59   10   13 1 
    60   10   11 1 
