@<TRIPOS>MOLECULE
C:\Users\Praveer\PycharmProjects\pdb_to_mol2_converter\data\pdb\dphg.pdb
  134   131     0     0     0
SMALL
GASTEIGER

@<TRIPOS>ATOM
      1 O1          0.1030    0.0210   -0.0940 O.3       1 DPH1        0.0000
      2 HO1        -0.0660    0.4750   -0.9260 H         1 DPH1        0.0000
      3 C1          1.5190   -0.0720   -0.0220 C.3       1 DPH1        0.0000
      4 HA          1.8880   -0.6800   -0.8730 H         1 DPH1        0.0000
      5 HB          1.7720   -0.5970    0.9230 H         1 DPH1        0.0000
      6 C2          2.2070    1.3180   -0.0240 C.3       1 DPH1        0.0000
      7 HS          1.6590    1.9810    0.6750 H         1 DPH1        0.0000
      8 O21         2.2010    1.8730   -1.3390 O.3       1 DPH1        0.0000
      9 C21         1.0030    2.5870   -1.5870 C.3       1 DPH1        0.0000
     10 H1R         1.8600    4.2580   -1.3490 H         1 DPH1        0.0000
     11 H1S         0.3330    4.4220   -1.6410 H         1 DPH1        0.0000
     12 C22         1.1870    4.0260   -2.2230 C.3       1 DPH1        0.0000
     13 H2R         0.4760    4.6680   -2.7790 H         1 DPH1        0.0000
     14 H2S         1.1820    3.2660   -3.0620 H         1 DPH1        0.0000
     15 C3          3.6900    1.2290    0.4130 C.3       1 DPH1        0.0000
     16 HX          4.2210    0.5760   -0.3130 H         1 DPH1        0.0000
     17 HY          3.7760    0.7720    1.4210 H         1 DPH1        0.0000
     18 O31         4.3190    2.5070    0.4060 O.3       1 DPH1        0.0000
     19 C31         3.9350    3.3400    1.4940 C.3       1 DPH1        0.0000
     20 H1X         4.2130    2.8660    2.4600 H         1 DPH1        0.0000
     21 H1Y         2.8390    3.5270    1.4830 H         1 DPH1        0.0000
     22 C32         4.6490    4.6890    1.3300 C.3       1 DPH1        0.0000
     23 H2X         4.3120    5.4020    2.1120 H         1 DPH1        0.0000
     24 H2Y         4.3350    5.0980    0.3440 H         1 DPH1        0.0000
     25 C23         2.4410    4.7130   -2.9270 C.3       1 DPH1        0.0000
     26 H3R         2.2070    4.8130   -4.0160 H         1 DPH1        0.0000
     27 C217        3.7250    3.8640   -2.8380 C.3       1 DPH1        0.0000
     28 H17R        3.5500    2.8490   -3.2510 H         1 DPH1        0.0000
     29 H17S        4.0440    3.7530   -1.7800 H         1 DPH1        0.0000
     30 H17T        4.5530    4.3380   -3.4060 H         1 DPH1        0.0000
     31 C24         2.7310    6.1460   -2.4120 C.3       1 DPH1        0.0000
     32 H4R         3.6620    6.5000   -2.9100 H         1 DPH1        0.0000
     33 H4S         2.9360    6.1120   -1.3210 H         1 DPH1        0.0000
     34 C25         1.6270    7.1750   -2.7000 C.3       1 DPH1        0.0000
     35 H5R         0.6510    6.8060   -2.3160 H         1 DPH1        0.0000
     36 H5S         1.5360    7.2980   -3.8020 H         1 DPH1        0.0000
     37 C26         1.9080    8.5340   -2.0360 C.3       1 DPH1        0.0000
     38 H6R         2.9160    8.8990   -2.3310 H         1 DPH1        0.0000
     39 H6S         1.9240    8.3730   -0.9370 H         1 DPH1        0.0000
     40 C27         0.8640    9.6200   -2.3820 C.3       1 DPH1        0.0000
     41 H7R        -0.1470    9.1480   -2.3520 H         1 DPH1        0.0000
     42 C218        1.0860   10.1670   -3.8040 C.3       1 DPH1        0.0000
     43 H18R        1.0220    9.3500   -4.5520 H         1 DPH1        0.0000
     44 H18S        2.0870   10.6400   -3.8830 H         1 DPH1        0.0000
     45 H18T        0.3160   10.9280   -4.0510 H         1 DPH1        0.0000
     46 C28         0.8560   10.7750   -1.3550 C.3       1 DPH1        0.0000
     47 H8R         0.2850   11.6270   -1.7900 H         1 DPH1        0.0000
     48 H8S         1.8980   11.1200   -1.1840 H         1 DPH1        0.0000
     49 C29         0.1930   10.4010   -0.0180 C.3       1 DPH1        0.0000
     50 H9R         0.7480    9.5610    0.4530 H         1 DPH1        0.0000
     51 H9S        -0.8400   10.0480   -0.2290 H         1 DPH1        0.0000
     52 C210        0.1420   11.5720    0.9800 C.3       1 DPH1        0.0000
     53 H10R       -0.4660   12.4010    0.5550 H         1 DPH1        0.0000
     54 H10S        1.1800   11.9470    1.1100 H         1 DPH1        0.0000
     55 C211       -0.4320   11.1820    2.3620 C.3       1 DPH1        0.0000
     56 H11R        0.1470   10.3000    2.7270 H         1 DPH1        0.0000
     57 C219       -1.9130   10.7670    2.2710 C.3       1 DPH1        0.0000
     58 H19R       -2.0400    9.8870    1.6080 H         1 DPH1        0.0000
     59 H19S       -2.5230   11.6040    1.8720 H         1 DPH1        0.0000
     60 H19T       -2.3000   10.4990    3.2770 H         1 DPH1        0.0000
     61 C212       -0.2700   12.2990    3.4180 C.3       1 DPH1        0.0000
     62 H12R       -0.7240   11.9300    4.3670 H         1 DPH1        0.0000
     63 H12S       -0.8430   13.1980    3.1010 H         1 DPH1        0.0000
     64 C213        1.1870   12.6920    3.7080 C.3       1 DPH1        0.0000
     65 H13R        1.5830   13.2990    2.8650 H         1 DPH1        0.0000
     66 H13S        1.7950   11.7620    3.7770 H         1 DPH1        0.0000
     67 C214        1.3320   13.4840    5.0180 C.3       1 DPH1        0.0000
     68 H14R        1.0510   12.8250    5.8690 H         1 DPH1        0.0000
     69 H14S        0.6170   14.3360    5.0020 H         1 DPH1        0.0000
     70 C215        2.7470   14.0480    5.2730 C.3       1 DPH1        0.0000
     71 H15R        2.9780   14.7700    4.4540 H         1 DPH1        0.0000
     72 C220        2.7860   14.8150    6.6060 C.3       1 DPH1        0.0000
     73 H20R        2.5710   14.1260    7.4500 H         1 DPH1        0.0000
     74 H20S        2.0280   15.6260    6.6110 H         1 DPH1        0.0000
     75 H20T        3.7890   15.2640    6.7660 H         1 DPH1        0.0000
     76 C216        3.8300   12.9560    5.2620 C.3       1 DPH1        0.0000
     77 H16R        3.8910   12.4710    4.2660 H         1 DPH1        0.0000
     78 H16S        3.6020   12.1800    6.0230 H         1 DPH1        0.0000
     79 H16T        4.8220   13.3970    5.4940 H         1 DPH1        0.0000
     80 C33         6.1890    4.5790    1.3710 C.3       1 DPH1        0.0000
     81 H3X         6.4760    3.6920    0.7560 H         1 DPH1        0.0000
     82 C317        6.6970    4.3430    2.8050 C.3       1 DPH1        0.0000
     83 H17X        6.2630    3.4130    3.2250 H         1 DPH1        0.0000
     84 H17Y        6.4150    5.1950    3.4580 H         1 DPH1        0.0000
     85 H17Z        7.8030    4.2450    2.8090 H         1 DPH1        0.0000
     86 C34         6.8930    5.8000    0.7380 C.3       1 DPH1        0.0000
     87 H4X         7.9890    5.6500    0.8620 H         1 DPH1        0.0000
     88 H4Y         6.6150    6.7270    1.2830 H         1 DPH1        0.0000
     89 C35         6.5980    5.9630   -0.7630 C.3       1 DPH1        0.0000
     90 H5X         5.6040    6.4390   -0.8990 H         1 DPH1        0.0000
     91 H5Y         6.5490    4.9490   -1.2240 H         1 DPH1        0.0000
     92 C36         7.6800    6.7670   -1.5000 C.3       1 DPH1        0.0000
     93 H6X         8.6540    6.2560   -1.3260 H         1 DPH1        0.0000
     94 H6Y         7.7570    7.7920   -1.0790 H         1 DPH1        0.0000
     95 C37         7.4470    6.8480   -3.0240 C.3       1 DPH1        0.0000
     96 H7X         7.1050    5.8400   -3.3590 H         1 DPH1        0.0000
     97 C318        8.7690    7.1580   -3.7520 C.3       1 DPH1        0.0000
     98 H18X        9.5360    6.3970   -3.4960 H         1 DPH1        0.0000
     99 H18Y        9.1490    8.1570   -3.4530 H         1 DPH1        0.0000
    100 H18Z        8.6270    7.1470   -4.8530 H         1 DPH1        0.0000
    101 C38         6.3450    7.8690   -3.3870 C.3       1 DPH1        0.0000
    102 H8X         6.7420    8.8960   -3.2400 H         1 DPH1        0.0000
    103 H8Y         5.4890    7.7420   -2.6900 H         1 DPH1        0.0000
    104 C39         5.8200    7.7120   -4.8230 C.3       1 DPH1        0.0000
    105 H9X         5.4570    6.6680   -4.9470 H         1 DPH1        0.0000
    106 H9Y         6.6520    7.8710   -5.5430 H         1 DPH1        0.0000
    107 C310        4.6900    8.6990   -5.1630 C.3       1 DPH1        0.0000
    108 H10X        5.0760    9.7240   -4.9710 H         1 DPH1        0.0000
    109 H10Y        3.8260    8.5300   -4.4860 H         1 DPH1        0.0000
    110 C311        4.2090    8.6000   -6.6290 C.3       1 DPH1        0.0000
    111 H11X        5.1080    8.6950   -7.2830 H         1 DPH1        0.0000
    112 C319        3.5540    7.2350   -6.9160 C.3       1 DPH1        0.0000
    113 H19X        2.6870    7.0770   -6.2410 H         1 DPH1        0.0000
    114 H19Y        4.2760    6.4070   -6.7650 H         1 DPH1        0.0000
    115 H19Z        3.1960    7.1920   -7.9660 H         1 DPH1        0.0000
    116 C312        3.2360    9.7330   -7.0270 C.3       1 DPH1        0.0000
    117 H12X        2.2960    9.6340   -6.4430 H         1 DPH1        0.0000
    118 H12Y        2.9760    9.5910   -8.1000 H         1 DPH1        0.0000
    119 C313        3.7970   11.1530   -6.8500 C.3       1 DPH1        0.0000
    120 H13X        4.8290   11.1920   -7.2660 H         1 DPH1        0.0000
    121 H13Y        3.8560   11.3880   -5.7660 H         1 DPH1        0.0000
    122 C314        2.9410   12.2130   -7.5630 C.3       1 DPH1        0.0000
    123 H14X        1.8890   12.1510   -7.2090 H         1 DPH1        0.0000
    124 H14Y        2.9450   11.9820   -8.6520 H         1 DPH1        0.0000
    125 C315        3.4490   13.6580   -7.3700 C.3       1 DPH1        0.0000
    126 H15X        4.5520   13.6590   -7.5400 H         1 DPH1        0.0000
    127 C320        3.1770   14.1750   -5.9470 C.3       1 DPH1        0.0000
    128 H20X        3.6780   13.5360   -5.1910 H         1 DPH1        0.0000
    129 H20Y        2.0860   14.1760   -5.7430 H         1 DPH1        0.0000
    130 H20Z        3.5570   15.2130   -5.8360 H         1 DPH1        0.0000
    131 C316        2.8160   14.6020   -8.4060 C.3       1 DPH1        0.0000
    132 H16X        1.7130   14.6220   -8.2870 H         1 DPH1        0.0000
    133 H16Y        3.0560   14.2620   -9.4360 H         1 DPH1        0.0000
    134 H16Z        3.2050   15.6340   -8.2770 H         1 DPH1        0.0000
@<TRIPOS>BOND
     1  133  131 1 
     2  124  122 1 
     3  131  132 1 
     4  131  134 1 
     5  131  125 1 
     6  118  116 1 
     7  115  112 1 
     8  122  125 1 
     9  122  123 1 
    10  122  119 1 
    11  126  125 1 
    12  125  127 1 
    13  111  110 1 
    14  120  119 1 
    15  116  119 1 
    16  116  110 1 
    17  116  117 1 
    18  112  114 1 
    19  112  110 1 
    20  112  113 1 
    21  119  121 1 
    22  110  107 1 
    23  127  130 1 
    24  127  129 1 
    25  127  128 1 
    26  106  104 1 
    27  107  108 1 
    28  107  104 1 
    29  107  109 1 
    30  105  104 1 
    31  100   97 1 
    32  104  101 1 
    33   43   42 1 
    34   45   42 1 
    35   26   25 1 
    36   44   42 1 
    37   42   40 1 
    38   36   34 1 
    39   97   98 1 
    40   97   99 1 
    41   97   95 1 
    42   30   27 1 
    43  101  102 1 
    44  101   95 1 
    45  101  103 1 
    46   96   95 1 
    47   28   27 1 
    48   14   12 1 
    49   95   92 1 
    50   25   27 1 
    51   25   31 1 
    52   32   31 1 
    53   27   29 1 
    54   13   12 1 
    55   34   31 1 
    56   34   35 1 
    57   34   37 1 
    58   31   33 1 
    59   40   41 1 
    60   40   37 1 
    61   40   46 1 
    62   38   37 1 
    63   12   11 1 
    64   12   10 1 
    65   37   39 1 
    66   47   46 1 
    67    9    8 1 
    68   92   93 1 
    69   92   94 1 
    70   92   89 1 
    71   46   48 1 
    72   46   49 1 
    73    8    6 1 
    74   91   89 1 
    75    2    1 1 
    76   90   89 1 
    77    4    3 1 
    78   89   86 1 
    79   16   15 1 
    80   51   49 1 
    81    1    3 1 
    82    6    3 1 
    83    6   15 1 
    84    6    7 1 
    85    3    5 1 
    86   49   50 1 
    87   49   52 1 
    88   24   22 1 
    89   18   15 1 
    90   18   19 1 
    91   15   17 1 
    92   53   52 1 
    93   86   87 1 
    94   86   88 1 
    95   86   80 1 
    96   81   80 1 
    97   52   54 1 
    98   52   55 1 
    99   22   80 1 
   100   22   19 1 
   101   22   23 1 
   102   80   82 1 
   103   21   19 1 
   104   19   20 1 
   105   58   57 1 
   106   59   57 1 
   107   57   55 1 
   108   57   60 1 
   109   55   56 1 
   110   55   61 1 
   111   82   85 1 
   112   82   83 1 
   113   82   84 1 
   114   65   64 1 
   115   63   61 1 
   116   61   64 1 
   117   61   62 1 
   118   64   66 1 
   119   64   67 1 
   120   77   76 1 
   121   71   70 1 
   122   69   67 1 
   123   67   70 1 
   124   67   68 1 
   125   76   70 1 
   126   76   79 1 
   127   76   78 1 
   128   70   72 1 
   129   72   74 1 
   130   72   75 1 
   131   72   73 1 
