@<TRIPOS>MOLECULE
C:\Users\Praveer\PycharmProjects\pdb_to_mol2_converter\data\pdb\dppa.pdb
  112   111     0     0     0
SMALL
GASTEIGER

@<TRIPOS>ATOM
      1 P           1.5650    0.0100   -0.0210 P.3       1 DPP1        0.0000
      2 O13         2.0950   -0.5250    1.2450 O.3       1 DPP1        0.0000
      3 O14         2.1010   -0.5070   -1.2890 O.2       1 DPP1        0.0000
      4 O12         2.0170    1.5100   -0.0080 O.3       1 DPP1        0.0000
      5 H12         2.9760    1.5010   -0.0450 H         1 DPP1        0.0000
      6 O11        -0.0170    0.0310   -0.0180 O.3       1 DPP1        0.0000
      7 C1         -0.6870    0.4140    1.1870 C.3       1 DPP1        0.0000
      8 HA         -0.4990    1.4850    1.4280 H         1 DPP1        0.0000
      9 HB         -0.3300   -0.2110    2.0430 H         1 DPP1        0.0000
     10 C2         -2.2160    0.1770    1.0560 C.3       1 DPP1        0.0000
     11 HS         -2.6760    1.0590    0.5520 H         1 DPP1        0.0000
     12 O21        -2.7840   -0.0470    2.3610 O.3       1 DPP1        0.0000
     13 C21        -2.8080    1.0250    3.1310 C.2       1 DPP1        0.0000
     14 O22        -2.6310    2.1740    2.7770 O.2       1 DPP1        0.0000
     15 C22        -3.0920    0.6020    4.5710 C.3       1 DPP1        0.0000
     16 H2R        -4.0970    0.1360    4.6040 H         1 DPP1        0.0000
     17 H2S        -3.1010    1.5230    5.1900 H         1 DPP1        0.0000
     18 C3         -2.5050   -1.0630    0.1580 C.3       1 DPP1        0.0000
     19 HX         -1.8790   -1.8940    0.5530 H         1 DPP1        0.0000
     20 HY         -2.1460   -0.8570   -0.8780 H         1 DPP1        0.0000
     21 O31        -3.8910   -1.4790    0.1820 O.3       1 DPP1        0.0000
     22 C31        -4.7080   -0.7450   -0.5560 C.2       1 DPP1        0.0000
     23 O32        -4.3990    0.2190   -1.2310 O.2       1 DPP1        0.0000
     24 C32        -6.1220   -1.3180   -0.4410 C.3       1 DPP1        0.0000
     25 H2X        -6.4610   -1.1910    0.6070 H         1 DPP1        0.0000
     26 H2Y        -6.0680   -2.4020   -0.6690 H         1 DPP1        0.0000
     27 C23        -2.0290   -0.3850    5.1080 C.3       1 DPP1        0.0000
     28 H3R        -1.0090    0.0500    4.9990 H         1 DPP1        0.0000
     29 H3S        -2.0550   -1.3150    4.4960 H         1 DPP1        0.0000
     30 C24        -2.2610   -0.7320    6.5850 C.3       1 DPP1        0.0000
     31 H4R        -3.3330   -0.9830    6.7440 H         1 DPP1        0.0000
     32 H4S        -2.0410    0.1760    7.1900 H         1 DPP1        0.0000
     33 C25        -1.3940   -1.9000    7.0940 C.3       1 DPP1        0.0000
     34 H5R        -0.9850   -1.6130    8.0900 H         1 DPP1        0.0000
     35 H5S        -0.5310   -2.0630    6.4140 H         1 DPP1        0.0000
     36 C26        -2.1860   -3.2080    7.2790 C.3       1 DPP1        0.0000
     37 H6R        -3.0820   -2.9730    7.8920 H         1 DPP1        0.0000
     38 H6S        -1.5720   -3.9360    7.8540 H         1 DPP1        0.0000
     39 C27        -2.6080   -3.8680    5.9560 C.3       1 DPP1        0.0000
     40 H7R        -1.7140   -4.3510    5.5020 H         1 DPP1        0.0000
     41 H7S        -2.9440   -3.0880    5.2440 H         1 DPP1        0.0000
     42 C28        -3.7350   -4.9090    6.0960 C.3       1 DPP1        0.0000
     43 H8R        -3.4110   -5.6870    6.8230 H         1 DPP1        0.0000
     44 H8S        -3.8770   -5.4140    5.1150 H         1 DPP1        0.0000
     45 C29        -5.0940   -4.3390    6.5470 C.3       1 DPP1        0.0000
     46 H9R        -4.9720   -3.9240    7.5720 H         1 DPP1        0.0000
     47 H9S        -5.8300   -5.1700    6.6240 H         1 DPP1        0.0000
     48 C210       -5.6910   -3.2310    5.6530 C.3       1 DPP1        0.0000
     49 H10R       -4.9400   -2.4480    5.4270 H         1 DPP1        0.0000
     50 H10S       -6.4870   -2.7330    6.2570 H         1 DPP1        0.0000
     51 C211       -6.3590   -3.7300    4.3570 C.3       1 DPP1        0.0000
     52 H11R       -7.3960   -3.3180    4.3530 H         1 DPP1        0.0000
     53 H11S       -6.4600   -4.8340    4.3730 H         1 DPP1        0.0000
     54 C212       -5.6930   -3.2540    3.0490 C.3       1 DPP1        0.0000
     55 H12R       -5.4080   -2.1830    3.1510 H         1 DPP1        0.0000
     56 H12S       -6.4470   -3.3180    2.2320 H         1 DPP1        0.0000
     57 C213       -4.4690   -4.0640    2.5900 C.3       1 DPP1        0.0000
     58 H13R       -3.6780   -4.0180    3.3650 H         1 DPP1        0.0000
     59 H13S       -4.0540   -3.5780    1.6770 H         1 DPP1        0.0000
     60 C214       -4.7840   -5.5300    2.2550 C.3       1 DPP1        0.0000
     61 H14R       -5.5890   -5.5620    1.4880 H         1 DPP1        0.0000
     62 H14S       -5.1600   -6.0510    3.1620 H         1 DPP1        0.0000
     63 C215       -3.5630   -6.2930    1.7270 C.3       1 DPP1        0.0000
     64 H15R       -2.7560   -6.2510    2.4940 H         1 DPP1        0.0000
     65 H15S       -3.1820   -5.7760    0.8160 H         1 DPP1        0.0000
     66 C216       -3.8670   -7.7550    1.3900 C.3       1 DPP1        0.0000
     67 H16R       -4.6530   -7.8180    0.6070 H         1 DPP1        0.0000
     68 H16S       -4.2280   -8.2940    2.2930 H         1 DPP1        0.0000
     69 H16T       -2.9550   -8.2670    1.0160 H         1 DPP1        0.0000
     70 C33        -7.1080   -0.6250   -1.4100 C.3       1 DPP1        0.0000
     71 H3X        -6.7040   -0.6740   -2.4480 H         1 DPP1        0.0000
     72 H3Y        -7.2100    0.4510   -1.1420 H         1 DPP1        0.0000
     73 C34        -8.4930   -1.2840   -1.4010 C.3       1 DPP1        0.0000
     74 H4X        -8.9280   -1.2100   -0.3800 H         1 DPP1        0.0000
     75 H4Y        -8.3750   -2.3640   -1.6410 H         1 DPP1        0.0000
     76 C35        -9.4600   -0.6550   -2.4160 C.3       1 DPP1        0.0000
     77 H5X        -8.9650   -0.6620   -3.4150 H         1 DPP1        0.0000
     78 H5Y        -9.6500    0.4060   -2.1440 H         1 DPP1        0.0000
     79 C36       -10.7980   -1.4040   -2.5390 C.3       1 DPP1        0.0000
     80 H6X       -10.5890   -2.4780   -2.7410 H         1 DPP1        0.0000
     81 H6Y       -11.3470   -1.0100   -3.4240 H         1 DPP1        0.0000
     82 C37       -11.7130   -1.2750   -1.3060 C.3       1 DPP1        0.0000
     83 H7X       -12.6100   -0.6830   -1.6000 H         1 DPP1        0.0000
     84 H7Y       -11.1950   -0.6950   -0.5130 H         1 DPP1        0.0000
     85 C38       -12.1850   -2.6270   -0.7380 C.3       1 DPP1        0.0000
     86 H8X       -12.6110   -3.2240   -1.5760 H         1 DPP1        0.0000
     87 H8Y       -13.0010   -2.4540   -0.0020 H         1 DPP1        0.0000
     88 C39       -11.0750   -3.4430   -0.0540 C.3       1 DPP1        0.0000
     89 H9X       -10.1800   -3.4580   -0.7120 H         1 DPP1        0.0000
     90 H9Y       -11.4160   -4.4960    0.0650 H         1 DPP1        0.0000
     91 C310      -10.6830   -2.9040    1.3300 C.3       1 DPP1        0.0000
     92 H10X      -11.4800   -3.1690    2.0600 H         1 DPP1        0.0000
     93 H10Y      -10.6340   -1.7930    1.2860 H         1 DPP1        0.0000
     94 C311       -9.3220   -3.4020    1.8460 C.3       1 DPP1        0.0000
     95 H11X       -9.1620   -2.9340    2.8450 H         1 DPP1        0.0000
     96 H11Y       -8.5110   -3.0380    1.1780 H         1 DPP1        0.0000
     97 C312       -9.2010   -4.9270    2.0100 C.3       1 DPP1        0.0000
     98 H12X      -10.1870   -5.3520    2.2910 H         1 DPP1        0.0000
     99 H12Y       -8.5040   -5.1260    2.8570 H         1 DPP1        0.0000
    100 C313       -8.6200   -5.6410    0.7760 C.3       1 DPP1        0.0000
    101 H13X       -7.6560   -5.1380    0.5300 H         1 DPP1        0.0000
    102 H13Y       -9.2860   -5.5200   -0.1030 H         1 DPP1        0.0000
    103 C314       -8.3340   -7.1360    1.0010 C.3       1 DPP1        0.0000
    104 H14X       -8.1030   -7.3140    2.0740 H         1 DPP1        0.0000
    105 H14Y       -7.4210   -7.4040    0.4200 H         1 DPP1        0.0000
    106 C315       -9.4580   -8.0820    0.5410 C.3       1 DPP1        0.0000
    107 H15X       -9.1180   -9.1300    0.7090 H         1 DPP1        0.0000
    108 H15Y       -9.6010   -7.9540   -0.5570 H         1 DPP1        0.0000
    109 C316      -10.8070   -7.8860    1.2410 C.3       1 DPP1        0.0000
    110 H16X      -11.2330   -6.8890    1.0000 H         1 DPP1        0.0000
    111 H16Y      -10.6880   -7.9630    2.3430 H         1 DPP1        0.0000
    112 H16Z      -11.5330   -8.6600    0.9110 H         1 DPP1        0.0000
@<TRIPOS>BOND
     1   81   79 1 
     2   77   76 1 
     3   80   79 1 
     4   79   76 1 
     5   79   82 1 
     6   71   70 1 
     7   76   78 1 
     8   76   73 1 
     9   75   73 1 
    10   83   82 1 
    11   86   85 1 
    12   70   73 1 
    13   70   72 1 
    14   70   24 1 
    15   73   74 1 
    16   82   85 1 
    17   82   84 1 
    18    3    1 2 
    19   23   22 2 
    20   20   18 1 
    21   85   88 1 
    22   85   87 1 
    23   89   88 1 
    24   26   24 1 
    25  108  106 1 
    26   22   24 1 
    27   22   21 1 
    28   24   25 1 
    29  102  100 1 
    30   88   90 1 
    31   88   91 1 
    32    5    4 1 
    33    1    6 1 
    34    1    4 1 
    35    1    2 1 
    36    6    7 1 
    37   18   21 1 
    38   18   19 1 
    39   18   10 1 
    40  105  103 1 
    41  101  100 1 
    42  106  107 1 
    43  106  103 1 
    44  106  109 1 
    45   11   10 1 
    46   67   66 1 
    47  100  103 1 
    48  100   97 1 
    49   65   63 1 
    50  112  109 1 
    51  110  109 1 
    52  103  104 1 
    53   69   66 1 
    54   10    7 1 
    55   10   12 1 
    56   96   94 1 
    57    7    8 1 
    58    7    9 1 
    59  109  111 1 
    60   93   91 1 
    61   91   94 1 
    62   91   92 1 
    63   66   63 1 
    64   66   68 1 
    65   61   60 1 
    66   59   57 1 
    67   63   60 1 
    68   63   64 1 
    69   94   97 1 
    70   94   95 1 
    71   97   98 1 
    72   97   99 1 
    73   56   54 1 
    74   60   57 1 
    75   60   62 1 
    76   12   13 1 
    77   57   54 1 
    78   57   58 1 
    79   14   13 2 
    80   54   55 1 
    81   54   51 1 
    82   13   15 1 
    83   52   51 1 
    84   51   53 1 
    85   51   48 1 
    86   29   27 1 
    87   15   16 1 
    88   15   27 1 
    89   15   17 1 
    90   28   27 1 
    91   27   30 1 
    92   44   42 1 
    93   41   39 1 
    94   49   48 1 
    95   40   39 1 
    96   48   50 1 
    97   48   45 1 
    98   39   42 1 
    99   39   36 1 
   100   42   45 1 
   101   42   43 1 
   102   35   33 1 
   103   45   47 1 
   104   45   46 1 
   105   30   31 1 
   106   30   33 1 
   107   30   32 1 
   108   33   36 1 
   109   33   34 1 
   110   36   38 1 
   111   36   37 1 
