@<TRIPOS>MOLECULE
C:\Users\Praveer\PycharmProjects\pdb_to_mol2_converter\data\pdb\dppc.pdb
  130   129     0     0     0
SMALL
GASTEIGER

@<TRIPOS>ATOM
      1 N           1.4830   -0.0040   -0.0040 N.4       1 DPP1        0.0000
      2 C13        -0.0130   -0.0050   -0.0060 C.3       1 DPP1        0.0000
      3 H13A       -0.3780    0.5220    0.8700 H         1 DPP1        0.0000
      4 H13B       -0.4010   -1.0140    0.0260 H         1 DPP1        0.0000
      5 H13C       -0.4040    0.4950   -0.8820 H         1 DPP1        0.0000
      6 C14         1.9840   -0.6990    1.2310 C.3       1 DPP1        0.0000
      7 H14A        1.6480   -1.7160    1.3170 H         1 DPP1        0.0000
      8 H14B        1.7020   -0.1450    2.1320 H         1 DPP1        0.0000
      9 H14C        3.0760   -0.6680    1.2640 H         1 DPP1        0.0000
     10 C15         2.0130   -0.7370   -1.1980 C.3       1 DPP1        0.0000
     11 H15A        1.6950   -0.2700   -2.1210 H         1 DPP1        0.0000
     12 H15B        1.6790   -1.7670   -1.1970 H         1 DPP1        0.0000
     13 H15C        3.1000   -0.7410   -1.1750 H         1 DPP1        0.0000
     14 C12         2.0180    1.4200    0.0040 C.3       1 DPP1        0.0000
     15 H12A        1.8190    1.9260   -0.9280 H         1 DPP1        0.0000
     16 H12B        3.1100    1.3730    0.0960 H         1 DPP1        0.0000
     17 C11         1.5690    2.3260    1.1690 C.3       1 DPP1        0.0000
     18 H11A        0.9560    1.7890    1.9290 H         1 DPP1        0.0000
     19 H11B        0.9310    3.1450    0.7670 H         1 DPP1        0.0000
     20 P           3.7170    1.9380    2.5540 P.3       1 DPP1        0.0000
     21 O13         2.9210    1.1110    3.4870 O.3       1 DPP1        0.0000
     22 O14         4.4910    1.1910    1.5340 O.2       1 DPP1        0.0000
     23 O11         4.6550    2.9280    3.3510 O.3       1 DPP1        0.0000
     24 O12         2.7250    2.8980    1.7690 O.3       1 DPP1        0.0000
     25 C1          5.6520    2.3660    4.2110 C.3       1 DPP1        0.0000
     26 HA          6.2320    1.5630    3.6930 H         1 DPP1        0.0000
     27 HB          5.1710    1.9340    5.1180 H         1 DPP1        0.0000
     28 C2          6.6670    3.4490    4.6550 C.3       1 DPP1        0.0000
     29 HS          6.0800    4.2470    5.1710 H         1 DPP1        0.0000
     30 O21         7.3390    3.9410    3.4780 O.3       1 DPP1        0.0000
     31 C21         7.6840    5.2120    3.5190 C.2       1 DPP1        0.0000
     32 O22         7.4940    5.9850    4.4420 O.2       1 DPP1        0.0000
     33 C22         8.4010    5.5710    2.2170 C.3       1 DPP1        0.0000
     34 H2R         7.6950    5.3980    1.3790 H         1 DPP1        0.0000
     35 H2S         9.2630    4.8820    2.1040 H         1 DPP1        0.0000
     36 C3          7.7040    2.8590    5.6560 C.3       1 DPP1        0.0000
     37 HX          8.1810    1.9920    5.1470 H         1 DPP1        0.0000
     38 HY          7.1710    2.4560    6.5480 H         1 DPP1        0.0000
     39 O31         8.7400    3.8020    6.0000 O.3       1 DPP1        0.0000
     40 C31         8.4640    4.6020    7.0280 C.2       1 DPP1        0.0000
     41 O32         7.5020    4.5050    7.7660 O.2       1 DPP1        0.0000
     42 C32         9.5730    5.6500    7.1310 C.3       1 DPP1        0.0000
     43 H2X         9.4490    6.3450    6.2730 H         1 DPP1        0.0000
     44 H2Y        10.5480    5.1320    7.0270 H         1 DPP1        0.0000
     45 C23         8.8880    7.0360    2.2160 C.3       1 DPP1        0.0000
     46 H3R         9.5380    7.2130    3.1050 H         1 DPP1        0.0000
     47 H3S         8.0130    7.7200    2.3020 H         1 DPP1        0.0000
     48 C24         9.6830    7.3970    0.9550 C.3       1 DPP1        0.0000
     49 H4R         9.0450    7.2380    0.0570 H         1 DPP1        0.0000
     50 H4S        10.5620    6.7180    0.8710 H         1 DPP1        0.0000
     51 C25        10.1730    8.8510    0.9790 C.3       1 DPP1        0.0000
     52 H5R        10.7740    9.0130    1.9020 H         1 DPP1        0.0000
     53 H5S         9.2930    9.5310    1.0260 H         1 DPP1        0.0000
     54 C26        11.0300    9.2190   -0.2400 C.3       1 DPP1        0.0000
     55 H6R        10.4350    9.0710   -1.1680 H         1 DPP1        0.0000
     56 H6S        11.9070    8.5340   -0.2870 H         1 DPP1        0.0000
     57 C27        11.5290   10.6690   -0.1810 C.3       1 DPP1        0.0000
     58 H7R        12.0910   10.8180    0.7690 H         1 DPP1        0.0000
     59 H7S        10.6540   11.3560   -0.1660 H         1 DPP1        0.0000
     60 C28        12.4410   11.0390   -1.3590 C.3       1 DPP1        0.0000
     61 H8R        11.8840   10.9050   -2.3130 H         1 DPP1        0.0000
     62 H8S        13.3120   10.3450   -1.3750 H         1 DPP1        0.0000
     63 C29        12.9530   12.4830   -1.2680 C.3       1 DPP1        0.0000
     64 H9R        13.4820   12.6180   -0.2970 H         1 DPP1        0.0000
     65 H9S        12.0860   13.1800   -1.2790 H         1 DPP1        0.0000
     66 C210       13.9110   12.8500   -2.4090 C.3       1 DPP1        0.0000
     67 H10R       13.3860   12.7300   -3.3830 H         1 DPP1        0.0000
     68 H10S       14.7730   12.1460   -2.4000 H         1 DPP1        0.0000
     69 C211       14.4380   14.2870   -2.2920 C.3       1 DPP1        0.0000
     70 H11R       14.9410   14.4090   -1.3070 H         1 DPP1        0.0000
     71 H11S       13.5790   14.9940   -2.3220 H         1 DPP1        0.0000
     72 C212       15.4290   14.6500   -3.4060 C.3       1 DPP1        0.0000
     73 H12R       14.9280   14.5390   -4.3930 H         1 DPP1        0.0000
     74 H12S       16.2840   13.9370   -3.3780 H         1 DPP1        0.0000
     75 C213       15.9670   16.0810   -3.2720 C.3       1 DPP1        0.0000
     76 H13R       16.4550   16.1940   -2.2770 H         1 DPP1        0.0000
     77 H13S       15.1150   16.7960   -3.3130 H         1 DPP1        0.0000
     78 C214       16.9800   16.4400   -4.3680 C.3       1 DPP1        0.0000
     79 H14R       16.4940   16.3310   -5.3640 H         1 DPP1        0.0000
     80 H14S       17.8300   15.7230   -4.3270 H         1 DPP1        0.0000
     81 C215       17.5230   17.8680   -4.2270 C.3       1 DPP1        0.0000
     82 H15R       17.9970   17.9730   -3.2240 H         1 DPP1        0.0000
     83 H15S       16.6690   18.5820   -4.2680 H         1 DPP1        0.0000
     84 C216       18.5420   18.2390   -5.3070 C.3       1 DPP1        0.0000
     85 H16R       18.0830   18.1640   -6.3160 H         1 DPP1        0.0000
     86 H16S       19.4170   17.5550   -5.2680 H         1 DPP1        0.0000
     87 H16T       18.9030   19.2800   -5.1610 H         1 DPP1        0.0000
     88 C33         9.5430    6.4500    8.4520 C.3       1 DPP1        0.0000
     89 H3X         9.6490    5.7530    9.3140 H         1 DPP1        0.0000
     90 H3Y         8.5640    6.9710    8.5570 H         1 DPP1        0.0000
     91 C34        10.6740    7.4860    8.5010 C.3       1 DPP1        0.0000
     92 H4X        10.5360    8.2140    7.6700 H         1 DPP1        0.0000
     93 H4Y        11.6440    6.9650    8.3360 H         1 DPP1        0.0000
     94 C35        10.7480    8.2490    9.8310 C.3       1 DPP1        0.0000
     95 H5X        10.8790    7.5190   10.6610 H         1 DPP1        0.0000
     96 H5Y         9.7920    8.7910   10.0020 H         1 DPP1        0.0000
     97 C36        11.9140    9.2470    9.8510 C.3       1 DPP1        0.0000
     98 H6X        11.7610   10.0040    9.0490 H         1 DPP1        0.0000
     99 H6Y        12.8570    8.7000    9.6220 H         1 DPP1        0.0000
    100 C37        12.0790    9.9660   11.1970 C.3       1 DPP1        0.0000
    101 H7X        12.2160    9.2060   11.9990 H         1 DPP1        0.0000
    102 H7Y        11.1540   10.5400   11.4270 H         1 DPP1        0.0000
    103 C38        13.2850   10.9160   11.1980 C.3       1 DPP1        0.0000
    104 H8X        13.1340   11.6990   10.4220 H         1 DPP1        0.0000
    105 H8Y        14.1960   10.3380   10.9220 H         1 DPP1        0.0000
    106 C39        13.5240   11.5910   12.5560 C.3       1 DPP1        0.0000
    107 H9X        13.6560   10.8040   13.3330 H         1 DPP1        0.0000
    108 H9Y        12.6310   12.1940   12.8320 H         1 DPP1        0.0000
    109 C310       14.7660   12.4940   12.5440 C.3       1 DPP1        0.0000
    110 H10X       14.6250   13.2980   11.7870 H         1 DPP1        0.0000
    111 H10Y       15.6470   11.8880   12.2320 H         1 DPP1        0.0000
    112 C311       15.0610   13.1300   13.9080 C.3       1 DPP1        0.0000
    113 H11X       15.1860   12.3240   14.6660 H         1 DPP1        0.0000
    114 H11Y       14.1950   13.7560   14.2180 H         1 DPP1        0.0000
    115 C312       16.3300   13.9950   13.8870 C.3       1 DPP1        0.0000
    116 H12X       16.2010   14.8140   13.1440 H         1 DPP1        0.0000
    117 H12Y       17.1880   13.3690   13.5540 H         1 DPP1        0.0000
    118 C313       16.6600   14.6050   15.2560 C.3       1 DPP1        0.0000
    119 H13X       16.7790   13.7850   15.9990 H         1 DPP1        0.0000
    120 H13Y       15.8110   15.2430   15.5870 H         1 DPP1        0.0000
    121 C314       17.9440   15.4470   15.2300 C.3       1 DPP1        0.0000
    122 H14X       17.8240   16.2730   14.4930 H         1 DPP1        0.0000
    123 H14Y       18.7900   14.8100   14.8880 H         1 DPP1        0.0000
    124 C315       18.2910   16.0440   16.6000 C.3       1 DPP1        0.0000
    125 H15X       18.4010   15.2130   17.3350 H         1 DPP1        0.0000
    126 H15Y       17.4410   16.6790   16.9400 H         1 DPP1        0.0000
    127 C316       19.5730   16.8800   16.5900 C.3       1 DPP1        0.0000
    128 H16X       19.4770   17.7310   15.8820 H         1 DPP1        0.0000
    129 H16Y       20.4390   16.2590   16.2750 H         1 DPP1        0.0000
    130 H16Z       19.7820   17.2870   17.6030 H         1 DPP1        0.0000
@<TRIPOS>BOND
     1   85   84 1 
     2   79   78 1 
     3   84   86 1 
     4   84   87 1 
     5   84   81 1 
     6   73   72 1 
     7   78   80 1 
     8   78   81 1 
     9   78   75 1 
    10   83   81 1 
    11   81   82 1 
    12   72   74 1 
    13   72   75 1 
    14   72   69 1 
    15   67   66 1 
    16   77   75 1 
    17   75   76 1 
    18   66   68 1 
    19   66   69 1 
    20   66   63 1 
    21   71   69 1 
    22   61   60 1 
    23   69   70 1 
    24   11   10 1 
    25   62   60 1 
    26   60   63 1 
    27   60   57 1 
    28   65   63 1 
    29   63   64 1 
    30   10   12 1 
    31   10   13 1 
    32   10    1 1 
    33   55   54 1 
    34   15   14 1 
    35    5    2 1 
    36   56   54 1 
    37   54   57 1 
    38   54   51 1 
    39   57   59 1 
    40   57   58 1 
    41    2    1 1 
    42    2    4 1 
    43    2    3 1 
    44    1   14 1 
    45    1    6 1 
    46   14   16 1 
    47   14   17 1 
    48   49   48 1 
    49   19   17 1 
    50   50   48 1 
    51   48   51 1 
    52   48   45 1 
    53   51   53 1 
    54   51   52 1 
    55   17   24 1 
    56   17   18 1 
    57    6    9 1 
    58    6    7 1 
    59    6    8 1 
    60   34   33 1 
    61   22   20 2 
    62   24   20 1 
    63   35   33 1 
    64   45   33 1 
    65   45   47 1 
    66   45   46 1 
    67   33   31 1 
    68   20   23 1 
    69   20   21 1 
    70   23   25 1 
    71   30   31 1 
    72   30   28 1 
    73   31   32 2 
    74   26   25 1 
    75   25   28 1 
    76   25   27 1 
    77   28   29 1 
    78   28   36 1 
    79   37   36 1 
    80   36   39 1 
    81   36   38 1 
    82   39   40 1 
    83   43   42 1 
    84   44   42 1 
    85   40   42 1 
    86   40   41 2 
    87   42   88 1 
    88   92   91 1 
    89   93   91 1 
    90   88   91 1 
    91   88   90 1 
    92   88   89 1 
    93   91   94 1 
    94   98   97 1 
    95   99   97 1 
    96   94   97 1 
    97   94   96 1 
    98   94   95 1 
    99   97  100 1 
   100  104  103 1 
   101  105  103 1 
   102  100  103 1 
   103  100  102 1 
   104  100  101 1 
   105  103  106 1 
   106  110  109 1 
   107  111  109 1 
   108  109  106 1 
   109  109  112 1 
   110  106  108 1 
   111  106  107 1 
   112  116  115 1 
   113  117  115 1 
   114  115  112 1 
   115  115  118 1 
   116  112  114 1 
   117  112  113 1 
   118  122  121 1 
   119  123  121 1 
   120  121  118 1 
   121  121  124 1 
   122  118  120 1 
   123  118  119 1 
   124  128  127 1 
   125  129  127 1 
   126  127  124 1 
   127  127  130 1 
   128  124  126 1 
   129  124  125 1 
