@<TRIPOS>MOLECULE
C:\Users\Praveer\PycharmProjects\pdb_to_mol2_converter\data\pdb\dppe.pdb
  121   120     0     0     0
SMALL
GASTEIGER

@<TRIPOS>ATOM
      1 N          -0.0070    0.0130    0.0040 N.4       1 DPP1        0.0000
      2 HN1        -0.3660   -0.4490   -0.8730 H         1 DPP1        0.0000
      3 HN2        -0.3220    1.0270   -0.0680 H         1 DPP1        0.0000
      4 HN3        -0.4360   -0.4060    0.8450 H         1 DPP1        0.0000
      5 C12         1.4990    0.0250    0.0140 C.3       1 DPP1        0.0000
      6 H12A        1.8440   -0.4850   -0.9110 H         1 DPP1        0.0000
      7 H12B        1.8440   -0.5440    0.9000 H         1 DPP1        0.0000
      8 C11         2.0410    1.4670    0.0390 C.3       1 DPP1        0.0000
      9 H11A        3.1540    1.4190    0.0740 H         1 DPP1        0.0000
     10 H11B        1.7190    1.9930    0.9710 H         1 DPP1        0.0000
     11 P           0.4420    3.1800   -1.1690 P.3       1 DPP1        0.0000
     12 O13         0.9110    4.5220   -0.7920 O.2       1 DPP1        0.0000
     13 O14        -0.6100    2.5350   -0.3460 O.3       1 DPP1        0.0000
     14 O11        -0.0010    3.1260   -2.6870 O.3       1 DPP1        0.0000
     15 O12         1.6650    2.1690   -1.1440 O.3       1 DPP1        0.0000
     16 C1          0.9010    2.7250   -3.7190 C.3       1 DPP1        0.0000
     17 HA          1.9560    3.0140   -3.5000 H         1 DPP1        0.0000
     18 HB          0.6200    3.2430   -4.6630 H         1 DPP1        0.0000
     19 C2          0.8230    1.1980   -3.9650 C.3       1 DPP1        0.0000
     20 HS          1.1000    0.7020   -3.0070 H         1 DPP1        0.0000
     21 O21         1.7530    0.8890   -5.0170 O.3       1 DPP1        0.0000
     22 C21         2.3270   -0.2980   -4.9290 C.2       1 DPP1        0.0000
     23 O22         2.0850   -1.1490   -4.0890 O.2       1 DPP1        0.0000
     24 C22         3.4180   -0.4290   -5.9970 C.3       1 DPP1        0.0000
     25 H2R         3.5610   -1.5110   -6.1970 H         1 DPP1        0.0000
     26 H2S         4.3520   -0.0280   -5.5530 H         1 DPP1        0.0000
     27 C3         -0.6300    0.7760   -4.3370 C.3       1 DPP1        0.0000
     28 HX         -0.8890    1.3160   -5.2740 H         1 DPP1        0.0000
     29 HY         -1.3280    1.1470   -3.5520 H         1 DPP1        0.0000
     30 O31        -0.7860   -0.6420   -4.5660 O.3       1 DPP1        0.0000
     31 C31        -0.8950   -1.3950   -3.4800 C.2       1 DPP1        0.0000
     32 O32        -0.8470   -0.9990   -2.3260 O.2       1 DPP1        0.0000
     33 C32        -1.1250   -2.8460   -3.8940 C.3       1 DPP1        0.0000
     34 H2X        -0.1650   -3.2470   -4.2820 H         1 DPP1        0.0000
     35 H2Y        -1.8720   -2.8580   -4.7150 H         1 DPP1        0.0000
     36 C23         3.1200    0.3160   -7.3210 C.3       1 DPP1        0.0000
     37 H3R         2.8670    1.3830   -7.1220 H         1 DPP1        0.0000
     38 H3S         2.2410   -0.1530   -7.8130 H         1 DPP1        0.0000
     39 C24         4.3240    0.2890   -8.2730 C.3       1 DPP1        0.0000
     40 H4R         4.6580   -0.7610   -8.4210 H         1 DPP1        0.0000
     41 H4S         5.1640    0.8380   -7.7900 H         1 DPP1        0.0000
     42 C25         4.0550    0.9210   -9.6510 C.3       1 DPP1        0.0000
     43 H5R         5.0290    0.9570  -10.1920 H         1 DPP1        0.0000
     44 H5S         3.7030    1.9680   -9.5320 H         1 DPP1        0.0000
     45 C26         3.0630    0.1270  -10.5190 C.3       1 DPP1        0.0000
     46 H6R         3.0340   -0.9270  -10.1720 H         1 DPP1        0.0000
     47 H6S         3.4390    0.1170  -11.5680 H         1 DPP1        0.0000
     48 C27         1.6450    0.7220  -10.5440 C.3       1 DPP1        0.0000
     49 H7R         1.7090    1.7380  -10.9960 H         1 DPP1        0.0000
     50 H7S         1.2610    0.8470   -9.5110 H         1 DPP1        0.0000
     51 C28         0.6550   -0.1190  -11.3680 C.3       1 DPP1        0.0000
     52 H8R         1.1360   -0.3690  -12.3410 H         1 DPP1        0.0000
     53 H8S        -0.2480    0.4930  -11.5900 H         1 DPP1        0.0000
     54 C29         0.2010   -1.4190  -10.6800 C.3       1 DPP1        0.0000
     55 H9R         1.0830   -1.9750  -10.2980 H         1 DPP1        0.0000
     56 H9S        -0.2930   -2.0650  -11.4410 H         1 DPP1        0.0000
     57 C210       -0.8040   -1.1810   -9.5410 C.3       1 DPP1        0.0000
     58 H10R       -1.6940   -0.6720   -9.9780 H         1 DPP1        0.0000
     59 H10S       -0.3720   -0.4920   -8.7840 H         1 DPP1        0.0000
     60 C211       -1.2680   -2.4740   -8.8480 C.3       1 DPP1        0.0000
     61 H11R       -1.0670   -3.3500   -9.5000 H         1 DPP1        0.0000
     62 H11S       -2.3740   -2.4120   -8.7130 H         1 DPP1        0.0000
     63 C212       -0.6510   -2.6840   -7.4540 C.3       1 DPP1        0.0000
     64 H12R       -1.1510   -3.5460   -6.9590 H         1 DPP1        0.0000
     65 H12S       -0.8660   -1.7760   -6.8470 H         1 DPP1        0.0000
     66 C213        0.8670   -2.9260   -7.4480 C.3       1 DPP1        0.0000
     67 H13R        1.2370   -2.8250   -6.4020 H         1 DPP1        0.0000
     68 H13S        1.3650   -2.1430   -8.0550 H         1 DPP1        0.0000
     69 C214        1.2640   -4.3180   -7.9600 C.3       1 DPP1        0.0000
     70 H14R        0.9030   -4.4480   -9.0050 H         1 DPP1        0.0000
     71 H14S        0.7540   -5.0790   -7.3270 H         1 DPP1        0.0000
     72 C215        2.7760   -4.5830   -7.9180 C.3       1 DPP1        0.0000
     73 H15R        2.9510   -5.6550   -8.1670 H         1 DPP1        0.0000
     74 H15S        3.1410   -4.4200   -6.8780 H         1 DPP1        0.0000
     75 C216        3.5900   -3.7170   -8.8840 C.3       1 DPP1        0.0000
     76 H16R        3.4840   -2.6430   -8.6270 H         1 DPP1        0.0000
     77 H16S        3.2370   -3.8630   -9.9270 H         1 DPP1        0.0000
     78 H16T        4.6670   -3.9840   -8.8360 H         1 DPP1        0.0000
     79 C33        -1.6330   -3.7130   -2.7210 C.3       1 DPP1        0.0000
     80 H3X        -2.5700   -3.2710   -2.3100 H         1 DPP1        0.0000
     81 H3Y        -0.8780   -3.7330   -1.9030 H         1 DPP1        0.0000
     82 C34        -1.9330   -5.1550   -3.1520 C.3       1 DPP1        0.0000
     83 H4X        -0.9930   -5.6300   -3.5110 H         1 DPP1        0.0000
     84 H4Y        -2.6470   -5.1360   -4.0070 H         1 DPP1        0.0000
     85 C35        -2.5450   -5.9990   -2.0220 C.3       1 DPP1        0.0000
     86 H5X        -3.4540   -5.4730   -1.6490 H         1 DPP1        0.0000
     87 H5Y        -1.8290   -6.0790   -1.1760 H         1 DPP1        0.0000
     88 C36        -2.9600   -7.4060   -2.4810 C.3       1 DPP1        0.0000
     89 H6X        -3.5760   -7.2960   -3.3980 H         1 DPP1        0.0000
     90 H6Y        -3.6010   -7.8750   -1.7010 H         1 DPP1        0.0000
     91 C37        -1.7650   -8.3370   -2.7470 C.3       1 DPP1        0.0000
     92 H7X        -1.2440   -8.5170   -1.7790 H         1 DPP1        0.0000
     93 H7Y        -1.0380   -7.8240   -3.4060 H         1 DPP1        0.0000
     94 C38        -2.1390   -9.7020   -3.3590 C.3       1 DPP1        0.0000
     95 H8X        -2.8270  -10.2030   -2.6390 H         1 DPP1        0.0000
     96 H8Y        -1.2280  -10.3340   -3.4390 H         1 DPP1        0.0000
     97 C39        -2.8390   -9.6670   -4.7330 C.3       1 DPP1        0.0000
     98 H9X        -3.6260   -8.8860   -4.7510 H         1 DPP1        0.0000
     99 H9Y        -3.3620  -10.6450   -4.8590 H         1 DPP1        0.0000
    100 C310       -1.9220   -9.5020   -5.9620 C.3       1 DPP1        0.0000
    101 H10X       -2.5690   -9.5550   -6.8670 H         1 DPP1        0.0000
    102 H10Y       -1.2120  -10.3570   -6.0150 H         1 DPP1        0.0000
    103 C311       -1.1270   -8.1870   -6.0160 C.3       1 DPP1        0.0000
    104 H11X       -0.2600   -8.2920   -5.3250 H         1 DPP1        0.0000
    105 H11Y       -1.7490   -7.3430   -5.6470 H         1 DPP1        0.0000
    106 C312       -0.5880   -7.8480   -7.4160 C.3       1 DPP1        0.0000
    107 H12X       -0.4820   -8.7790   -8.0140 H         1 DPP1        0.0000
    108 H12Y        0.4360   -7.4250   -7.2870 H         1 DPP1        0.0000
    109 C313       -1.4110   -6.8040   -8.1970 C.3       1 DPP1        0.0000
    110 H13X       -0.8220   -6.5520   -9.1110 H         1 DPP1        0.0000
    111 H13Y       -1.5080   -5.8700   -7.6030 H         1 DPP1        0.0000
    112 C314       -2.8020   -7.2700   -8.6600 C.3       1 DPP1        0.0000
    113 H14X       -2.7790   -8.3580   -8.8830 H         1 DPP1        0.0000
    114 H14Y       -3.0450   -6.7410   -9.6110 H         1 DPP1        0.0000
    115 C315       -3.9300   -6.9510   -7.6680 C.3       1 DPP1        0.0000
    116 H15X       -3.9360   -5.8550   -7.4730 H         1 DPP1        0.0000
    117 H15Y       -3.7260   -7.4570   -6.6990 H         1 DPP1        0.0000
    118 C316       -5.3130   -7.3810   -8.1660 C.3       1 DPP1        0.0000
    119 H16X       -5.3370   -8.4780   -8.3430 H         1 DPP1        0.0000
    120 H16Y       -5.5600   -6.8650   -9.1180 H         1 DPP1        0.0000
    121 H16Z       -6.0930   -7.1290   -7.4160 H         1 DPP1        0.0000
@<TRIPOS>BOND
     1   52   51 1 
     2   53   51 1 
     3   47   45 1 
     4   56   54 1 
     5   51   54 1 
     6   51   48 1 
     7   49   48 1 
     8   54   55 1 
     9   54   57 1 
    10   48   45 1 
    11   48   50 1 
    12   45   46 1 
    13   45   42 1 
    14   43   42 1 
    15   58   57 1 
    16   77   75 1 
    17   42   44 1 
    18   42   39 1 
    19  114  112 1 
    20   57   60 1 
    21   57   59 1 
    22   61   60 1 
    23  120  118 1 
    24  110  109 1 
    25   70   69 1 
    26   75   78 1 
    27   75   76 1 
    28   75   72 1 
    29  113  112 1 
    30   60   62 1 
    31   60   63 1 
    32  112  109 1 
    33  112  115 1 
    34   40   39 1 
    35  119  118 1 
    36   39   41 1 
    37   39   36 1 
    38  109  111 1 
    39  109  106 1 
    40   73   72 1 
    41  118  115 1 
    42  118  121 1 
    43   68   66 1 
    44  107  106 1 
    45   69   72 1 
    46   69   66 1 
    47   69   71 1 
    48   72   74 1 
    49   38   36 1 
    50  115  116 1 
    51  115  117 1 
    52   63   66 1 
    53   63   64 1 
    54   63   65 1 
    55   66   67 1 
    56  106  108 1 
    57  106  103 1 
    58   36   37 1 
    59   36   24 1 
    60  101  100 1 
    61   25   24 1 
    62  103  100 1 
    63  103  105 1 
    64  103  104 1 
    65  102  100 1 
    66   24   26 1 
    67   24   22 1 
    68  100   97 1 
    69   28   27 1 
    70   21   22 1 
    71   21   19 1 
    72   22   23 2 
    73   99   97 1 
    74   98   97 1 
    75   97   94 1 
    76   35   33 1 
    77   18   16 1 
    78   30   27 1 
    79   30   31 1 
    80   27   19 1 
    81   27   29 1 
    82   34   33 1 
    83   84   82 1 
    84   19   16 1 
    85   19   20 1 
    86   33   31 1 
    87   33   79 1 
    88   16   17 1 
    89   16   14 1 
    90   83   82 1 
    91   31   32 2 
    92   96   94 1 
    93   93   91 1 
    94   89   88 1 
    95   94   91 1 
    96   94   95 1 
    97   82   79 1 
    98   82   85 1 
    99   91   88 1 
   100   91   92 1 
   101   79   80 1 
   102   79   81 1 
   103   14   11 1 
   104   88   85 1 
   105   88   90 1 
   106   85   86 1 
   107   85   87 1 
   108   11   15 1 
   109   11   12 2 
   110   11   13 1 
   111   15    8 1 
   112    6    5 1 
   113    2    1 1 
   114    3    1 1 
   115    1    5 1 
   116    1    4 1 
   117    5    8 1 
   118    5    7 1 
   119    8    9 1 
   120    8   10 1 
