@<TRIPOS>MOLECULE
C:\Users\Praveer\PycharmProjects\pdb_to_mol2_converter\data\pdb\dppg.pdb
  123   122     0     0     0
SMALL
GASTEIGER

@<TRIPOS>ATOM
      1 C13         0.0110    0.0010   -0.0500 C.3       1 DPP1        0.0000
      2 H13A       -0.3540    0.5590   -0.9380 H         1 DPP1        0.0000
      3 H13B       -0.3400   -1.0520   -0.1260 H         1 DPP1        0.0000
      4 OC3        -0.5240    0.5870    1.1370 O.3       1 DPP1        0.0000
      5 HO3         0.1010    0.3040    1.8190 H         1 DPP1        0.0000
      6 C12         1.5620    0.0020   -0.0390 C.3       1 DPP1        0.0000
      7 H12A        1.9170   -0.5230   -0.9560 H         1 DPP1        0.0000
      8 OC2         2.0590   -0.6970    1.0970 O.3       1 DPP1        0.0000
      9 HO2         2.9720   -0.3750    1.1270 H         1 DPP1        0.0000
     10 C11         2.1850    1.4180   -0.0260 C.3       1 DPP1        0.0000
     11 H11A        1.8110    1.9600    0.8720 H         1 DPP1        0.0000
     12 H11B        1.8260    1.9870   -0.9170 H         1 DPP1        0.0000
     13 P           4.4800    1.3700   -1.2850 P.3       1 DPP1        0.0000
     14 O13         4.6250    2.7720   -1.7260 O.3       1 DPP1        0.0000
     15 O14         3.9150    0.3930   -2.2380 O.2       1 DPP1        0.0000
     16 O12         3.6140    1.3470    0.0470 O.3       1 DPP1        0.0000
     17 O11         5.8860    0.8500   -0.7570 O.3       1 DPP1        0.0000
     18 C1          6.2420    1.0950    0.6060 C.3       1 DPP1        0.0000
     19 HA          5.7520    0.3480    1.2710 H         1 DPP1        0.0000
     20 HB          5.9280    2.1190    0.9300 H         1 DPP1        0.0000
     21 C2          7.7800    1.0290    0.7920 C.3       1 DPP1        0.0000
     22 HS          8.1010   -0.0390    0.8070 H         1 DPP1        0.0000
     23 O21         8.1410    1.7080    2.0100 O.3       1 DPP1        0.0000
     24 C21         7.7510    1.1000    3.1140 C.2       1 DPP1        0.0000
     25 O22         7.3750   -0.0530    3.2090 O.2       1 DPP1        0.0000
     26 C22         7.8100    2.0890    4.2760 C.3       1 DPP1        0.0000
     27 H2R         8.8750    2.3220    4.4790 H         1 DPP1        0.0000
     28 H2S         7.3780    1.5820    5.1630 H         1 DPP1        0.0000
     29 C3          8.5160    1.7160   -0.3950 C.3       1 DPP1        0.0000
     30 HX          8.0740    2.7320   -0.5030 H         1 DPP1        0.0000
     31 HY          8.2920    1.1690   -1.3400 H         1 DPP1        0.0000
     32 O31         9.9370    1.8520   -0.1530 O.3       1 DPP1        0.0000
     33 C31        10.6510    0.7610   -0.3960 C.2       1 DPP1        0.0000
     34 O32        10.2320   -0.2730   -0.8810 O.2       1 DPP1        0.0000
     35 C32        12.0940    1.0230    0.0480 C.3       1 DPP1        0.0000
     36 H2X        12.0850    1.2600    1.1310 H         1 DPP1        0.0000
     37 H2Y        12.4440    1.9190   -0.5060 H         1 DPP1        0.0000
     38 C23         7.0250    3.3860    3.9730 C.3       1 DPP1        0.0000
     39 H3R         5.9750    3.1420    3.6870 H         1 DPP1        0.0000
     40 H3S         7.4910    3.9010    3.1020 H         1 DPP1        0.0000
     41 C24         6.9950    4.3430    5.1720 C.3       1 DPP1        0.0000
     42 H4R         8.0280    4.4770    5.5650 H         1 DPP1        0.0000
     43 H4S         6.3930    3.8690    5.9810 H         1 DPP1        0.0000
     44 C25         6.4000    5.7250    4.8410 C.3       1 DPP1        0.0000
     45 H5R         5.6470    5.9720    5.6240 H         1 DPP1        0.0000
     46 H5S         5.8670    5.6910    3.8670 H         1 DPP1        0.0000
     47 C26         7.4510    6.8500    4.8310 C.3       1 DPP1        0.0000
     48 H6R         8.0180    6.7900    5.7860 H         1 DPP1        0.0000
     49 H6S         6.9400    7.8390    4.8190 H         1 DPP1        0.0000
     50 C27         8.4210    6.7890    3.6390 C.3       1 DPP1        0.0000
     51 H7R         7.9690    7.3480    2.7880 H         1 DPP1        0.0000
     52 H7S         8.5420    5.7410    3.2970 H         1 DPP1        0.0000
     53 C28         9.8160    7.3610    3.9480 C.3       1 DPP1        0.0000
     54 H8R         9.6960    8.3710    4.3990 H         1 DPP1        0.0000
     55 H8S        10.3730    7.4930    2.9940 H         1 DPP1        0.0000
     56 C29        10.6680    6.4850    4.8890 C.3       1 DPP1        0.0000
     57 H9R        10.1470    6.3930    5.8670 H         1 DPP1        0.0000
     58 H9S        11.6310    7.0100    5.0820 H         1 DPP1        0.0000
     59 C210       10.9870    5.0650    4.3780 C.3       1 DPP1        0.0000
     60 H10R       10.0570    4.4850    4.2020 H         1 DPP1        0.0000
     61 H10S       11.5410    4.5460    5.1950 H         1 DPP1        0.0000
     62 C211       11.8720    5.0280    3.1200 C.3       1 DPP1        0.0000
     63 H11R       12.5570    4.1550    3.2010 H         1 DPP1        0.0000
     64 H11S       12.4990    5.9450    3.0950 H         1 DPP1        0.0000
     65 C212       11.0970    4.8720    1.8020 C.3       1 DPP1        0.0000
     66 H12R       10.3930    5.7220    1.6770 H         1 DPP1        0.0000
     67 H12S       10.4840    3.9420    1.8530 H         1 DPP1        0.0000
     68 C213       11.9990    4.7920    0.5560 C.3       1 DPP1        0.0000
     69 H13R       11.3320    4.6060   -0.3180 H         1 DPP1        0.0000
     70 H13S       12.6860    3.9230    0.6400 H         1 DPP1        0.0000
     71 C214       12.8140    6.0690    0.2800 C.3       1 DPP1        0.0000
     72 H14R       12.3020    6.9410    0.7430 H         1 DPP1        0.0000
     73 H14S       12.8360    6.2460   -0.8210 H         1 DPP1        0.0000
     74 C215       14.2710    5.9930    0.7630 C.3       1 DPP1        0.0000
     75 H15R       14.7840    5.1680    0.2190 H         1 DPP1        0.0000
     76 H15S       14.2890    5.7330    1.8450 H         1 DPP1        0.0000
     77 C216       15.0480    7.2950    0.5510 C.3       1 DPP1        0.0000
     78 H16R       14.5690    8.1270    1.1110 H         1 DPP1        0.0000
     79 H16S       15.0680    7.5650   -0.5270 H         1 DPP1        0.0000
     80 H16T       16.0950    7.1890    0.9060 H         1 DPP1        0.0000
     81 C33        13.0590   -0.1530   -0.2330 C.3       1 DPP1        0.0000
     82 H3X        14.0950    0.2060   -0.0380 H         1 DPP1        0.0000
     83 H3Y        13.0070   -0.4460   -1.3060 H         1 DPP1        0.0000
     84 C34        12.8050   -1.3900    0.6460 C.3       1 DPP1        0.0000
     85 H4X        11.8120   -1.8160    0.3740 H         1 DPP1        0.0000
     86 H4Y        12.7580   -1.0920    1.7150 H         1 DPP1        0.0000
     87 C35        13.8660   -2.4890    0.4570 C.3       1 DPP1        0.0000
     88 H5X        14.0740   -2.5890   -0.6320 H         1 DPP1        0.0000
     89 H5Y        13.4570   -3.4630    0.8080 H         1 DPP1        0.0000
     90 C36        15.1780   -2.2140    1.2100 C.3       1 DPP1        0.0000
     91 H6X        15.4520   -1.1470    1.0730 H         1 DPP1        0.0000
     92 H6Y        15.9940   -2.8260    0.7640 H         1 DPP1        0.0000
     93 C37        15.0890   -2.5570    2.7070 C.3       1 DPP1        0.0000
     94 H7X        15.0020   -3.6620    2.8070 H         1 DPP1        0.0000
     95 H7Y        14.1590   -2.1230    3.1340 H         1 DPP1        0.0000
     96 C38        16.2960   -2.0760    3.5330 C.3       1 DPP1        0.0000
     97 H8X        17.2200   -2.5370    3.1200 H         1 DPP1        0.0000
     98 H8Y        16.1750   -2.4440    4.5780 H         1 DPP1        0.0000
     99 C39        16.4800   -0.5470    3.5780 C.3       1 DPP1        0.0000
    100 H9X        16.7100   -0.1780    2.5580 H         1 DPP1        0.0000
    101 H9Y        17.3630   -0.3150    4.2150 H         1 DPP1        0.0000
    102 C310       15.2610    0.2090    4.1340 C.3       1 DPP1        0.0000
    103 H10X       15.0630   -0.1890    5.1560 H         1 DPP1        0.0000
    104 H10Y       14.3600    0.0020    3.5170 H         1 DPP1        0.0000
    105 C311       15.4530    1.7330    4.2320 C.3       1 DPP1        0.0000
    106 H11X       16.5240    1.9860    4.3740 H         1 DPP1        0.0000
    107 H11Y       14.9180    2.0710    5.1510 H         1 DPP1        0.0000
    108 C312       14.8470    2.5250    3.0580 C.3       1 DPP1        0.0000
    109 H12X       14.8010    3.6010    3.3440 H         1 DPP1        0.0000
    110 H12Y       13.7990    2.1770    2.9150 H         1 DPP1        0.0000
    111 C313       15.5820    2.4260    1.7090 C.3       1 DPP1        0.0000
    112 H13X       14.9050    2.8800    0.9460 H         1 DPP1        0.0000
    113 H13Y       15.7240    1.3670    1.4150 H         1 DPP1        0.0000
    114 C314       16.9090    3.2080    1.6530 C.3       1 DPP1        0.0000
    115 H14X       16.8700    4.0380    2.3930 H         1 DPP1        0.0000
    116 H14Y       17.0040    3.6740    0.6460 H         1 DPP1        0.0000
    117 C315       18.1750    2.3650    1.8880 C.3       1 DPP1        0.0000
    118 H15X       18.0730    1.8000    2.8390 H         1 DPP1        0.0000
    119 H15Y       19.0350    3.0630    2.0140 H         1 DPP1        0.0000
    120 C316       18.5060    1.3940    0.7490 C.3       1 DPP1        0.0000
    121 H16X       18.6370    1.9460   -0.2060 H         1 DPP1        0.0000
    122 H16Y       17.6950    0.6490    0.6120 H         1 DPP1        0.0000
    123 H16Z       19.4470    0.8460    0.9690 H         1 DPP1        0.0000
@<TRIPOS>BOND
     1   15   13 2 
     2   14   13 1 
     3   31   29 1 
     4   83   81 1 
     5   13   17 1 
     6   13   16 1 
     7    7    6 1 
     8    2    1 1 
     9   12   10 1 
    10   34   33 2 
    11   73   71 1 
    12   17   18 1 
    13   88   87 1 
    14   79   77 1 
    15   37   35 1 
    16   30   29 1 
    17   33   32 1 
    18   33   35 1 
    19   29   32 1 
    20   29   21 1 
    21   69   68 1 
    22   81   82 1 
    23   81   35 1 
    24   81   84 1 
    25  121  120 1 
    26    3    1 1 
    27    1    6 1 
    28    1    4 1 
    29    6   10 1 
    30    6    8 1 
    31   10   16 1 
    32   10   11 1 
    33   35   36 1 
    34   75   74 1 
    35   71   68 1 
    36   71   72 1 
    37   71   74 1 
    38   85   84 1 
    39   87   84 1 
    40   87   89 1 
    41   87   90 1 
    42   77   74 1 
    43   77   80 1 
    44   77   78 1 
    45   68   70 1 
    46   68   65 1 
    47   18   21 1 
    48   18   20 1 
    49   18   19 1 
    50  122  120 1 
    51   84   86 1 
    52  116  114 1 
    53  120  123 1 
    54  120  117 1 
    55   74   76 1 
    56   92   90 1 
    57   21   22 1 
    58   21   23 1 
    59  112  111 1 
    60   91   90 1 
    61    8    9 1 
    62    4    5 1 
    63   90   93 1 
    64  113  111 1 
    65  114  111 1 
    66  114  117 1 
    67  114  115 1 
    68   66   65 1 
    69  111  108 1 
    70   65   67 1 
    71   65   62 1 
    72  117  119 1 
    73  117  118 1 
    74   23   24 1 
    75  100   99 1 
    76   93   94 1 
    77   93   95 1 
    78   93   96 1 
    79   51   50 1 
    80  110  108 1 
    81   55   53 1 
    82  108  109 1 
    83  108  105 1 
    84   64   62 1 
    85   40   38 1 
    86   24   25 2 
    87   24   26 1 
    88   97   96 1 
    89   62   63 1 
    90   62   59 1 
    91   52   50 1 
    92  104  102 1 
    93   96   99 1 
    94   96   98 1 
    95   99  102 1 
    96   99  101 1 
    97   50   53 1 
    98   50   47 1 
    99   39   38 1 
   100   46   44 1 
   101   53   54 1 
   102   53   56 1 
   103   38   26 1 
   104   38   41 1 
   105  102  105 1 
   106  102  103 1 
   107   60   59 1 
   108  105  106 1 
   109  105  107 1 
   110   26   27 1 
   111   26   28 1 
   112   59   56 1 
   113   59   61 1 
   114   49   47 1 
   115   47   44 1 
   116   47   48 1 
   117   44   41 1 
   118   44   45 1 
   119   56   58 1 
   120   56   57 1 
   121   41   42 1 
   122   41   43 1 
