@<TRIPOS>MOLECULE
C:\Users\Praveer\PycharmProjects\pdb_to_mol2_converter\data\pdb\dpps.pdb
  123   122     0     0     0
SMALL
GASTEIGER

@<TRIPOS>ATOM
      1 N          -0.0220    0.0130   -0.0240 N.4       1 DPP1        0.0000
      2 HN1        -0.3970   -0.5630   -0.7920 H         1 DPP1        0.0000
      3 HN2        -0.3590    1.0150   -0.0990 H         1 DPP1        0.0000
      4 HN3        -0.2480   -0.3930    0.9180 H         1 DPP1        0.0000
      5 C12         1.4680    0.0230   -0.0080 C.3       1 DPP1        0.0000
      6 H12A        1.8360   -0.4950   -0.8820 H         1 DPP1        0.0000
      7 C13         1.9490   -0.7480    1.2380 C.2       1 DPP1        0.0000
      8 O13A        1.0750   -1.2170    2.0240 O.co2     1 DPP1        0.0000
      9 O13B        3.1850   -0.8920    1.3990 O.co2     1 DPP1        0.0000
     10 C11         1.9940    1.4910    0.0010 C.3       1 DPP1        0.0000
     11 H11A        3.1050    1.4460    0.0950 H         1 DPP1        0.0000
     12 H11B        1.6240    2.0310    0.9050 H         1 DPP1        0.0000
     13 P           0.3960    3.0880   -1.3780 P.3       1 DPP1        0.0000
     14 O13         0.7630    4.5100   -1.2650 O.2       1 DPP1        0.0000
     15 O14        -0.6390    2.5360   -0.4700 O.3       1 DPP1        0.0000
     16 O12         1.6810    2.1760   -1.2170 O.3       1 DPP1        0.0000
     17 O11        -0.0330    2.7520   -2.8640 O.3       1 DPP1        0.0000
     18 C1          0.9780    2.6200   -3.8640 C.3       1 DPP1        0.0000
     19 HA          1.6420    1.7530   -3.6440 H         1 DPP1        0.0000
     20 HB          1.6040    3.5440   -3.9140 H         1 DPP1        0.0000
     21 C2          0.3280    2.4160   -5.2570 C.3       1 DPP1        0.0000
     22 HS         -0.1760    1.4190   -5.2690 H         1 DPP1        0.0000
     23 O21         1.3440    2.5160   -6.2750 O.3       1 DPP1        0.0000
     24 C21         2.1420    1.4630   -6.3460 C.2       1 DPP1        0.0000
     25 O22         1.9720    0.3950   -5.7890 O.2       1 DPP1        0.0000
     26 C22         3.3360    1.7890   -7.2410 C.3       1 DPP1        0.0000
     27 H2R         2.9540    2.1000   -8.2340 H         1 DPP1        0.0000
     28 H2S         3.9220    0.8540   -7.3590 H         1 DPP1        0.0000
     29 C3         -0.7710    3.4850   -5.5240 C.3       1 DPP1        0.0000
     30 HX         -0.2650    4.4760   -5.5310 H         1 DPP1        0.0000
     31 HY         -1.4860    3.5010   -4.6680 H         1 DPP1        0.0000
     32 O31        -1.4440    3.2960   -6.7930 O.3       1 DPP1        0.0000
     33 C31        -2.4250    2.3990   -6.7660 C.2       1 DPP1        0.0000
     34 O32        -2.7680    1.7470   -5.7980 O.2       1 DPP1        0.0000
     35 C32        -3.0670    2.3070   -8.1520 C.3       1 DPP1        0.0000
     36 H2X        -2.3130    1.8690   -8.8370 H         1 DPP1        0.0000
     37 H2Y        -3.3100    3.3330   -8.4940 H         1 DPP1        0.0000
     38 C23         4.2330    2.8970   -6.6420 C.3       1 DPP1        0.0000
     39 H3R         4.5510    2.6180   -5.6120 H         1 DPP1        0.0000
     40 H3S         3.6430    3.8350   -6.5620 H         1 DPP1        0.0000
     41 C24         5.4910    3.1380   -7.4910 C.3       1 DPP1        0.0000
     42 H4R         5.2060    3.2910   -8.5550 H         1 DPP1        0.0000
     43 H4S         6.1050    2.2090   -7.4450 H         1 DPP1        0.0000
     44 C25         6.3610    4.3200   -7.0230 C.3       1 DPP1        0.0000
     45 H5R         7.4270    4.0200   -7.1570 H         1 DPP1        0.0000
     46 H5S         6.2070    4.5160   -5.9410 H         1 DPP1        0.0000
     47 C26         6.1550    5.6080   -7.8430 C.3       1 DPP1        0.0000
     48 H6R         6.1450    5.3390   -8.9210 H         1 DPP1        0.0000
     49 H6S         7.0230    6.2870   -7.6800 H         1 DPP1        0.0000
     50 C27         4.8790    6.3820   -7.4790 C.3       1 DPP1        0.0000
     51 H7R         5.0090    6.8250   -6.4660 H         1 DPP1        0.0000
     52 H7S         4.0220    5.6810   -7.4140 H         1 DPP1        0.0000
     53 C28         4.5120    7.4940   -8.4770 C.3       1 DPP1        0.0000
     54 H8R         5.3450    8.2290   -8.5370 H         1 DPP1        0.0000
     55 H8S         3.6200    8.0290   -8.0760 H         1 DPP1        0.0000
     56 C29         4.1670    7.0000   -9.8960 C.3       1 DPP1        0.0000
     57 H9R         5.0960    6.6910  -10.4240 H         1 DPP1        0.0000
     58 H9S         3.7350    7.8530  -10.4640 H         1 DPP1        0.0000
     59 C210        3.1770    5.8230   -9.9130 C.3       1 DPP1        0.0000
     60 H10R        2.3720    6.0020   -9.1650 H         1 DPP1        0.0000
     61 H10S        3.7220    4.9060   -9.5940 H         1 DPP1        0.0000
     62 C211        2.5330    5.5670  -11.2850 C.3       1 DPP1        0.0000
     63 H11R        2.5150    4.4660  -11.4580 H         1 DPP1        0.0000
     64 H11S        3.1540    6.0150  -12.0890 H         1 DPP1        0.0000
     65 C212        1.0800    6.0670  -11.3730 C.3       1 DPP1        0.0000
     66 H12R        0.5060    5.5820  -10.5500 H         1 DPP1        0.0000
     67 H12S        0.6320    5.7340  -12.3350 H         1 DPP1        0.0000
     68 C213        0.9100    7.5900  -11.2490 C.3       1 DPP1        0.0000
     69 H13R        1.4490    7.9610  -10.3520 H         1 DPP1        0.0000
     70 H13S       -0.1700    7.8050  -11.0900 H         1 DPP1        0.0000
     71 C214        1.3850    8.3540  -12.4940 C.3       1 DPP1        0.0000
     72 H14R        0.8150    7.9920  -13.3790 H         1 DPP1        0.0000
     73 H14S        2.4600    8.1260  -12.6700 H         1 DPP1        0.0000
     74 C215        1.2190    9.8780  -12.3850 C.3       1 DPP1        0.0000
     75 H15R        1.6550   10.3420  -13.3000 H         1 DPP1        0.0000
     76 H15S        1.8130   10.2410  -11.5150 H         1 DPP1        0.0000
     77 C216       -0.2310   10.3510  -12.2370 C.3       1 DPP1        0.0000
     78 H16R       -0.6650   10.0000  -11.2770 H         1 DPP1        0.0000
     79 H16S       -0.8540    9.9560  -13.0690 H         1 DPP1        0.0000
     80 H16T       -0.2820   11.4610  -12.2550 H         1 DPP1        0.0000
     81 C33        -4.3460    1.4360   -8.1240 C.3       1 DPP1        0.0000
     82 H3X        -5.0860    1.8940   -7.4280 H         1 DPP1        0.0000
     83 H3Y        -4.0990    0.4250   -7.7260 H         1 DPP1        0.0000
     84 C34        -5.0140    1.2590   -9.4970 C.3       1 DPP1        0.0000
     85 H4X        -5.3170    2.2510   -9.9000 H         1 DPP1        0.0000
     86 H4Y        -5.9400    0.6560   -9.3580 H         1 DPP1        0.0000
     87 C35        -4.1200    0.5480  -10.5220 C.3       1 DPP1        0.0000
     88 H5X        -3.6650   -0.3530  -10.0520 H         1 DPP1        0.0000
     89 H5Y        -3.2930    1.2310  -10.8080 H         1 DPP1        0.0000
     90 C36        -4.8760    0.1090  -11.7850 C.3       1 DPP1        0.0000
     91 H6X        -5.4800    0.9550  -12.1800 H         1 DPP1        0.0000
     92 H6Y        -5.5900   -0.6950  -11.4950 H         1 DPP1        0.0000
     93 C37        -3.9440   -0.4180  -12.8910 C.3       1 DPP1        0.0000
     94 H7X        -4.3670   -1.3730  -13.2810 H         1 DPP1        0.0000
     95 H7Y        -2.9500   -0.6580  -12.4550 H         1 DPP1        0.0000
     96 C38        -3.7740    0.5360  -14.0890 C.3       1 DPP1        0.0000
     97 H8X        -4.7680    0.6480  -14.5820 H         1 DPP1        0.0000
     98 H8Y        -3.0860    0.0710  -14.8300 H         1 DPP1        0.0000
     99 C39        -3.2550    1.9420  -13.7410 C.3       1 DPP1        0.0000
    100 H9X        -3.9330    2.3960  -12.9870 H         1 DPP1        0.0000
    101 H9Y        -3.3040    2.5770  -14.6540 H         1 DPP1        0.0000
    102 C310       -1.8100    1.9680  -13.2180 C.3       1 DPP1        0.0000
    103 H10X       -1.1410    1.5300  -13.9920 H         1 DPP1        0.0000
    104 H10Y       -1.7320    1.3260  -12.3140 H         1 DPP1        0.0000
    105 C311       -1.3020    3.3790  -12.8630 C.3       1 DPP1        0.0000
    106 H11X       -1.2450    3.9960  -13.7850 H         1 DPP1        0.0000
    107 H11Y       -0.2640    3.2720  -12.4720 H         1 DPP1        0.0000
    108 C312       -2.1460    4.1070  -11.7980 C.3       1 DPP1        0.0000
    109 H12X       -1.4700    4.6560  -11.1060 H         1 DPP1        0.0000
    110 H12Y       -2.6860    3.3510  -11.1880 H         1 DPP1        0.0000
    111 C313       -3.1530    5.1220  -12.3710 C.3       1 DPP1        0.0000
    112 H13X       -3.8600    5.4100  -11.5600 H         1 DPP1        0.0000
    113 H13Y       -3.7460    4.6440  -13.1790 H         1 DPP1        0.0000
    114 C314       -2.4890    6.4040  -12.9000 C.3       1 DPP1        0.0000
    115 H14X       -1.8060    6.1550  -13.7410 H         1 DPP1        0.0000
    116 H14Y       -1.8710    6.8380  -12.0830 H         1 DPP1        0.0000
    117 C315       -3.4890    7.4730  -13.3700 C.3       1 DPP1        0.0000
    118 H15X       -2.9170    8.3960  -13.6220 H         1 DPP1        0.0000
    119 H15Y       -4.1680    7.7260  -12.5240 H         1 DPP1        0.0000
    120 C316       -4.3250    7.0650  -14.5870 C.3       1 DPP1        0.0000
    121 H16X       -4.9780    6.2000  -14.3440 H         1 DPP1        0.0000
    122 H16Y       -3.6640    6.7790  -15.4330 H         1 DPP1        0.0000
    123 H16Z       -4.9710    7.9070  -14.9140 H         1 DPP1        0.0000
@<TRIPOS>BOND
     1  122  120 1 
     2  123  120 1 
     3   98   96 1 
     4  101   99 1 
     5  120  121 1 
     6  120  117 1 
     7   97   96 1 
     8   96   99 1 
     9   96   93 1 
    10  103  102 1 
    11  106  105 1 
    12   99  102 1 
    13   99  100 1 
    14  115  114 1 
    15  118  117 1 
    16   72   71 1 
    17  117  114 1 
    18  117  119 1 
    19   75   74 1 
    20   94   93 1 
    21  102  105 1 
    22  102  104 1 
    23  113  111 1 
    24   79   77 1 
    25  114  111 1 
    26  114  116 1 
    27   93   95 1 
    28   93   90 1 
    29  105  107 1 
    30  105  108 1 
    31   73   71 1 
    32   71   74 1 
    33   71   68 1 
    34   74   77 1 
    35   74   76 1 
    36  111  108 1 
    37  111  112 1 
    38   67   65 1 
    39   80   77 1 
    40   77   78 1 
    41   91   90 1 
    42   64   62 1 
    43  108  110 1 
    44  108  109 1 
    45   90   92 1 
    46   90   87 1 
    47   63   62 1 
    48   65   62 1 
    49   65   68 1 
    50   65   66 1 
    51   62   59 1 
    52   68   70 1 
    53   68   69 1 
    54   89   87 1 
    55   87   88 1 
    56   87   84 1 
    57   58   56 1 
    58   57   56 1 
    59   59   56 1 
    60   59   61 1 
    61   59   60 1 
    62   85   84 1 
    63   56   53 1 
    64   84   86 1 
    65   84   81 1 
    66   48   47 1 
    67   36   35 1 
    68   42   41 1 
    69   54   53 1 
    70   37   35 1 
    71   53   55 1 
    72   53   50 1 
    73   27   26 1 
    74   35   81 1 
    75   35   33 1 
    76   81   83 1 
    77   81   82 1 
    78   47   49 1 
    79   47   50 1 
    80   47   44 1 
    81   41   43 1 
    82   41   44 1 
    83   41   38 1 
    84   50   52 1 
    85   50   51 1 
    86   28   26 1 
    87   26   38 1 
    88   26   24 1 
    89   45   44 1 
    90   44   46 1 
    91   32   33 1 
    92   32   29 1 
    93   33   34 2 
    94   38   40 1 
    95   38   39 1 
    96   24   23 1 
    97   24   25 2 
    98   23   21 1 
    99   30   29 1 
   100   29   21 1 
   101   29   31 1 
   102   22   21 1 
   103   21   18 1 
   104   20   18 1 
   105   18   19 1 
   106   18   17 1 
   107   17   13 1 
   108   13   14 2 
   109   13   16 1 
   110   13   15 1 
   111   16   10 1 
   112    6    5 1 
   113    2    1 1 
   114    3    1 1 
   115    1    5 1 
   116    1    4 1 
   117    5   10 1 
   118    5    7 1 
   119   10   11 1 
   120   10   12 1 
   121    7    9 ar
   122    7    8 ar
