@<TRIPOS>MOLECULE
C:\Users\Praveer\PycharmProjects\pdb_to_mol2_converter\data\pdb\dpt.pdb
   57    56     0     0     0
SMALL
GASTEIGER

@<TRIPOS>ATOM
      1 O1         -0.1400    0.0540   -0.1100 O.co2     1 DPT1        0.0000
      2 O2          1.7710   -1.0070    0.2940 O.co2     1 DPT1        0.0000
      3 C1          1.0990    0.0400    0.1040 C.2       1 DPT1        0.0000
      4 C2          1.8680    1.3630    0.1350 C.3       1 DPT1        0.0000
      5 H2R         2.6420    1.2950   -0.6570 H         1 DPT1        0.0000
      6 H2S         2.3710    1.4210    1.1220 H         1 DPT1        0.0000
      7 C3          0.9690    2.6100   -0.0830 C.3       1 DPT1        0.0000
      8 H3R         0.1980    2.6220    0.7200 H         1 DPT1        0.0000
      9 H3S         0.4240    2.4800   -1.0460 H         1 DPT1        0.0000
     10 C4          1.7940    3.8740   -0.1200 C.2       1 DPT1        0.0000
     11 H4R         2.6380    3.8280   -0.8250 H         1 DPT1        0.0000
     12 C5          1.6220    4.9930    0.6110 C.2       1 DPT1        0.0000
     13 H5R         2.3400    5.8150    0.4690 H         1 DPT1        0.0000
     14 C6          0.5350    5.2580    1.6290 C.3       1 DPT1        0.0000
     15 H6R         0.9360    5.0140    2.6380 H         1 DPT1        0.0000
     16 H6S        -0.3270    4.5710    1.4730 H         1 DPT1        0.0000
     17 C7          0.0690    6.6970    1.6320 C.2       1 DPT1        0.0000
     18 H7R         0.7860    7.4360    1.2410 H         1 DPT1        0.0000
     19 C8         -1.1310    7.1300    2.0600 C.2       1 DPT1        0.0000
     20 H8R        -1.3530    8.2080    2.0020 H         1 DPT1        0.0000
     21 C9         -2.2200    6.2500    2.6270 C.3       1 DPT1        0.0000
     22 H9R        -1.8210    5.6970    3.5080 H         1 DPT1        0.0000
     23 H9S        -2.4860    5.4710    1.8760 H         1 DPT1        0.0000
     24 C10        -3.4620    7.0040    3.0440 C.2       1 DPT1        0.0000
     25 H10R       -3.3520    8.0940    3.1570 H         1 DPT1        0.0000
     26 C11        -4.6690    6.4540    3.2820 C.2       1 DPT1        0.0000
     27 H11R       -5.5030    7.1150    3.5650 H         1 DPT1        0.0000
     28 C12        -5.0110    4.9840    3.2010 C.3       1 DPT1        0.0000
     29 H12R       -4.0930    4.3650    3.0820 H         1 DPT1        0.0000
     30 H12S       -5.6150    4.8090    2.2830 H         1 DPT1        0.0000
     31 C13        -5.7660    4.5000    4.4170 C.2       1 DPT1        0.0000
     32 H13R       -5.7520    5.1620    5.2990 H         1 DPT1        0.0000
     33 C14        -6.4260    3.3300    4.4960 C.2       1 DPT1        0.0000
     34 H14R       -6.9300    3.0680    5.4410 H         1 DPT1        0.0000
     35 C15        -6.5110    2.3120    3.3830 C.3       1 DPT1        0.0000
     36 H15R       -5.4900    1.9150    3.1890 H         1 DPT1        0.0000
     37 H15S       -6.8240    2.8090    2.4380 H         1 DPT1        0.0000
     38 C16        -7.4850    1.1970    3.6900 C.2       1 DPT1        0.0000
     39 H16R       -8.5140    1.5300    3.8990 H         1 DPT1        0.0000
     40 C17        -7.2130   -0.1210    3.7450 C.2       1 DPT1        0.0000
     41 H17R       -8.0260   -0.8210    3.9940 H         1 DPT1        0.0000
     42 C18        -5.8780   -0.7720    3.4740 C.3       1 DPT1        0.0000
     43 H18R       -5.2960   -0.8550    4.4190 H         1 DPT1        0.0000
     44 H18S       -5.2720   -0.1650    2.7650 H         1 DPT1        0.0000
     45 C19        -6.0210   -2.1840    2.8740 C.3       1 DPT1        0.0000
     46 H19R       -6.5200   -2.1190    1.8810 H         1 DPT1        0.0000
     47 H19S       -6.6680   -2.8000    3.5410 H         1 DPT1        0.0000
     48 C20        -4.6850   -2.9360    2.7060 C.3       1 DPT1        0.0000
     49 H20R       -4.9340   -3.9680    2.3660 H         1 DPT1        0.0000
     50 H20S       -4.1690   -3.0310    3.6840 H         1 DPT1        0.0000
     51 C21        -3.7170   -2.3330    1.6700 C.3       1 DPT1        0.0000
     52 H21R       -4.2970   -1.8270    0.8670 H         1 DPT1        0.0000
     53 H21S       -3.1640   -3.1750    1.1890 H         1 DPT1        0.0000
     54 C22        -2.6640   -1.3730    2.2360 C.3       1 DPT1        0.0000
     55 H22R       -2.0500   -1.8730    3.0150 H         1 DPT1        0.0000
     56 H22S       -3.1290   -0.4690    2.6780 H         1 DPT1        0.0000
     57 H22T       -1.9740   -1.0400    1.4250 H         1 DPT1        0.0000
@<TRIPOS>BOND
     1    9    7 1 
     2   11   10 1 
     3    5    4 1 
     4   10    7 1 
     5   10   12 2 
     6    1    3 ar
     7    7    4 1 
     8    7    8 1 
     9    3    4 1 
    10    3    2 ar
    11    4    6 1 
    12   13   12 1 
    13   12   14 1 
    14   52   51 1 
    15   53   51 1 
    16   18   17 1 
    17   57   54 1 
    18   16   14 1 
    19   14   17 1 
    20   14   15 1 
    21   17   19 2 
    22   51   54 1 
    23   51   48 1 
    24   23   21 1 
    25   46   45 1 
    26   20   19 1 
    27   19   21 1 
    28   54   56 1 
    29   54   55 1 
    30   30   28 1 
    31   49   48 1 
    32   37   35 1 
    33   21   24 1 
    34   21   22 1 
    35   48   45 1 
    36   48   50 1 
    37   44   42 1 
    38   45   42 1 
    39   45   47 1 
    40   24   25 1 
    41   24   26 2 
    42   29   28 1 
    43   36   35 1 
    44   28   26 1 
    45   28   31 1 
    46   26   27 1 
    47   35   38 1 
    48   35   33 1 
    49   42   40 1 
    50   42   43 1 
    51   38   40 2 
    52   38   39 1 
    53   40   41 1 
    54   31   33 2 
    55   31   32 1 
    56   33   34 1 
