@<TRIPOS>MOLECULE
C:\Users\Praveer\PycharmProjects\pdb_to_mol2_converter\data\pdb\dptp.pdb
   58    57     0     0     0
SMALL
GASTEIGER

@<TRIPOS>ATOM
      1 H1         -0.0130   -0.2110   -0.1020 H         1 DPT1        0.0000
      2 O1          0.9280   -0.2240   -0.2730 O.3       1 DPT1        0.0000
      3 O2          0.6400    1.9090    0.3690 O.2       1 DPT1        0.0000
      4 C1          1.4030    1.0390   -0.0070 C.2       1 DPT1        0.0000
      5 C2          2.9030    1.1950   -0.2470 C.3       1 DPT1        0.0000
      6 H2R         3.1420    2.2650   -0.0630 H         1 DPT1        0.0000
      7 H2S         3.1140    0.9640   -1.3120 H         1 DPT1        0.0000
      8 C3          3.7550    0.2840    0.6750 C.3       1 DPT1        0.0000
      9 H3R         3.5470   -0.7790    0.4160 H         1 DPT1        0.0000
     10 H3S         3.4350    0.4330    1.7320 H         1 DPT1        0.0000
     11 C4          5.2180    0.6320    0.5410 C.2       1 DPT1        0.0000
     12 H4R         5.4630    1.6650    0.8340 H         1 DPT1        0.0000
     13 C5          6.2190   -0.1570    0.1040 C.2       1 DPT1        0.0000
     14 H5R         7.2320    0.2760    0.0590 H         1 DPT1        0.0000
     15 C6          6.1250   -1.5980   -0.3460 C.3       1 DPT1        0.0000
     16 H6R         6.0710   -1.6190   -1.4580 H         1 DPT1        0.0000
     17 H6S         5.1840   -2.0700    0.0130 H         1 DPT1        0.0000
     18 C7          7.3120   -2.4220    0.0990 C.2       1 DPT1        0.0000
     19 H7R         8.1280   -1.8730    0.5970 H         1 DPT1        0.0000
     20 C8          7.4480   -3.7520   -0.0650 C.2       1 DPT1        0.0000
     21 H8R         8.3700   -4.2330    0.3020 H         1 DPT1        0.0000
     22 C9          6.4370   -4.6650   -0.7180 C.3       1 DPT1        0.0000
     23 H9R         6.5500   -4.5830   -1.8220 H         1 DPT1        0.0000
     24 H9S         5.4050   -4.3180   -0.4890 H         1 DPT1        0.0000
     25 C10         6.6050   -6.1180   -0.3330 C.2       1 DPT1        0.0000
     26 H10R        7.6300   -6.4240   -0.0680 H         1 DPT1        0.0000
     27 C11         5.6320   -7.0490   -0.2910 C.2       1 DPT1        0.0000
     28 H11R        5.9000   -8.0730    0.0200 H         1 DPT1        0.0000
     29 C12         4.1730   -6.8490   -0.6320 C.3       1 DPT1        0.0000
     30 H12R        4.0090   -5.8700   -1.1330 H         1 DPT1        0.0000
     31 H12S        3.5850   -6.8090    0.3120 H         1 DPT1        0.0000
     32 C13         3.6590   -7.9410   -1.5410 C.2       1 DPT1        0.0000
     33 H13R        4.3770   -8.3050   -2.2940 H         1 DPT1        0.0000
     34 C14         2.4300   -8.4910   -1.5110 C.2       1 DPT1        0.0000
     35 H14R        2.1950   -9.2840   -2.2400 H         1 DPT1        0.0000
     36 C15         1.3130   -8.1060   -0.5680 C.3       1 DPT1        0.0000
     37 H15R        1.2310   -6.9970   -0.5190 H         1 DPT1        0.0000
     38 H15S        1.5750   -8.4340    0.4620 H         1 DPT1        0.0000
     39 C16        -0.0020   -8.7450   -0.9580 C.2       1 DPT1        0.0000
     40 H16R       -0.0080   -9.8450   -0.9000 H         1 DPT1        0.0000
     41 C17        -1.1250   -8.1230   -1.3700 C.2       1 DPT1        0.0000
     42 H17R       -2.0000   -8.7360   -1.6340 H         1 DPT1        0.0000
     43 C18        -1.3370   -6.6350   -1.5080 C.3       1 DPT1        0.0000
     44 H18R       -1.1020   -6.3150   -2.5480 H         1 DPT1        0.0000
     45 H18S       -0.6660   -6.0680   -0.8270 H         1 DPT1        0.0000
     46 C19        -2.7900   -6.2240   -1.1990 C.3       1 DPT1        0.0000
     47 H19R       -3.0160   -6.4360   -0.1290 H         1 DPT1        0.0000
     48 H19S       -3.4830   -6.8410   -1.8170 H         1 DPT1        0.0000
     49 C20        -3.1060   -4.7440   -1.4960 C.3       1 DPT1        0.0000
     50 H20R       -4.1950   -4.5990   -1.3010 H         1 DPT1        0.0000
     51 H20S       -2.9300   -4.5250   -2.5710 H         1 DPT1        0.0000
     52 C21        -2.3320   -3.7360   -0.6280 C.3       1 DPT1        0.0000
     53 H21R       -2.1100   -4.2040    0.3570 H         1 DPT1        0.0000
     54 H21S       -2.9990   -2.8630   -0.4340 H         1 DPT1        0.0000
     55 C22        -1.0380   -3.2070   -1.2590 C.3       1 DPT1        0.0000
     56 H22R       -1.2570   -2.6300   -2.1820 H         1 DPT1        0.0000
     57 H22S       -0.3570   -4.0400   -1.5290 H         1 DPT1        0.0000
     58 H22T       -0.5010   -2.5460   -0.5460 H         1 DPT1        0.0000
@<TRIPOS>BOND
     1   51   49 1 
     2   44   43 1 
     3   33   32 1 
     4   35   34 1 
     5   56   55 1 
     6   23   22 1 
     7   48   46 1 
     8   42   41 1 
     9   32   34 2 
    10   32   29 1 
    11   57   55 1 
    12   34   36 1 
    13   43   41 1 
    14   43   46 1 
    15   43   45 1 
    16   49   50 1 
    17   49   46 1 
    18   49   52 1 
    19   16   15 1 
    20   41   39 2 
    21    7    5 1 
    22   55   52 1 
    23   55   58 1 
    24   46   47 1 
    25   30   29 1 
    26   39   40 1 
    27   39   36 1 
    28   22   24 1 
    29   22   25 1 
    30   22   20 1 
    31   29   27 1 
    32   29   31 1 
    33   52   54 1 
    34   52   53 1 
    35   36   37 1 
    36   36   38 1 
    37   15   17 1 
    38   15   18 1 
    39   15   13 1 
    40   25   27 2 
    41   25   26 1 
    42   27   28 1 
    43    2    1 1 
    44    2    4 1 
    45    5    6 1 
    46    5    4 1 
    47    5    8 1 
    48   20   18 2 
    49   20   21 1 
    50    4    3 2 
    51   14   13 1 
    52   18   19 1 
    53   13   11 2 
    54    9    8 1 
    55   11    8 1 
    56   11   12 1 
    57    8   10 1 
