@<TRIPOS>MOLECULE
C:\Users\Praveer\PycharmProjects\pdb_to_mol2_converter\data\pdb\dspa.pdb
  124   123     0     0     0
SMALL
GASTEIGER

@<TRIPOS>ATOM
      1 P           1.5900    0.0320   -0.0270 P.3       1 DSP1        0.0000
      2 O13         2.1320   -0.4900    1.2360 O.3       1 DSP1        0.0000
      3 O14         2.1410   -0.4700   -1.2980 O.2       1 DSP1        0.0000
      4 O12         2.0010    1.5440   -0.0160 O.3       1 DSP1        0.0000
      5 H12         2.9600    1.5610   -0.0660 H         1 DSP1        0.0000
      6 O11         0.0090    0.0100   -0.0300 O.3       1 DSP1        0.0000
      7 C1         -0.6930    0.3600    1.1670 C.3       1 DSP1        0.0000
      8 HA         -0.6550    1.4590    1.3410 H         1 DSP1        0.0000
      9 HB         -0.2420   -0.1530    2.0520 H         1 DSP1        0.0000
     10 C2         -2.1740   -0.1030    1.0860 C.3       1 DSP1        0.0000
     11 HS         -2.7760    0.6930    0.5870 H         1 DSP1        0.0000
     12 O21        -2.6600   -0.3870    2.4150 O.3       1 DSP1        0.0000
     13 C21        -2.8030    0.6940    3.1630 C.2       1 DSP1        0.0000
     14 O22        -2.8540    1.8420    2.7680 O.2       1 DSP1        0.0000
     15 C22        -2.8590    0.2900    4.6340 C.3       1 DSP1        0.0000
     16 H2R        -3.7530   -0.3430    4.8000 H         1 DSP1        0.0000
     17 H2S        -2.9680    1.2290    5.2170 H         1 DSP1        0.0000
     18 C3         -2.2960   -1.3840    0.2070 C.3       1 DSP1        0.0000
     19 HX         -1.5770   -2.1230    0.6260 H         1 DSP1        0.0000
     20 HY         -1.9470   -1.1500   -0.8260 H         1 DSP1        0.0000
     21 O31        -3.6160   -1.9760    0.2030 O.3       1 DSP1        0.0000
     22 C31        -4.5020   -1.3650   -0.5710 C.2       1 DSP1        0.0000
     23 O32        -4.3300   -0.3280   -1.1840 O.2       1 DSP1        0.0000
     24 C32        -5.7720   -2.2150   -0.6190 C.3       1 DSP1        0.0000
     25 H2X        -6.1150   -2.3970    0.4190 H         1 DSP1        0.0000
     26 H2Y        -5.4920   -3.1880   -1.0750 H         1 DSP1        0.0000
     27 C23        -1.5770   -0.4510    5.0780 C.3       1 DSP1        0.0000
     28 H3R        -0.6730    0.0780    4.6940 H         1 DSP1        0.0000
     29 H3S        -1.5700   -1.4720    4.6350 H         1 DSP1        0.0000
     30 C24        -1.4550   -0.5350    6.6060 C.3       1 DSP1        0.0000
     31 H4R        -2.4010   -0.9290    7.0370 H         1 DSP1        0.0000
     32 H4S        -1.3190    0.4990    6.9970 H         1 DSP1        0.0000
     33 C25        -0.2770   -1.4050    7.0790 C.3       1 DSP1        0.0000
     34 H5R         0.2620   -0.8510    7.8820 H         1 DSP1        0.0000
     35 H5S         0.4440   -1.5650    6.2480 H         1 DSP1        0.0000
     36 C26        -0.7230   -2.7550    7.6670 C.3       1 DSP1        0.0000
     37 H6R        -1.4810   -2.5380    8.4500 H         1 DSP1        0.0000
     38 H6S         0.1390   -3.2450    8.1710 H         1 DSP1        0.0000
     39 C27        -1.2990   -3.7310    6.6270 C.3       1 DSP1        0.0000
     40 H7R        -0.4600   -4.1290    6.0110 H         1 DSP1        0.0000
     41 H7S        -1.9730   -3.1870    5.9320 H         1 DSP1        0.0000
     42 C28        -2.0800   -4.9060    7.2440 C.3       1 DSP1        0.0000
     43 H8R        -1.3980   -5.4800    7.9110 H         1 DSP1        0.0000
     44 H8S        -2.3900   -5.5910    6.4240 H         1 DSP1        0.0000
     45 C29        -3.3310   -4.4980    8.0510 C.3       1 DSP1        0.0000
     46 H9R        -3.0060   -3.9310    8.9510 H         1 DSP1        0.0000
     47 H9S        -3.8370   -5.4180    8.4200 H         1 DSP1        0.0000
     48 C210       -4.3620   -3.6440    7.2850 C.3       1 DSP1        0.0000
     49 H10R       -3.8720   -2.7800    6.7950 H         1 DSP1        0.0000
     50 H10S       -5.0620   -3.2100    8.0340 H         1 DSP1        0.0000
     51 C211       -5.2030   -4.4480    6.2800 C.3       1 DSP1        0.0000
     52 H11R       -6.2760   -4.3870    6.5800 H         1 DSP1        0.0000
     53 H11S       -4.8890   -5.5110    6.3450 H         1 DSP1        0.0000
     54 C212       -5.0780   -4.0110    4.8100 C.3       1 DSP1        0.0000
     55 H12R       -4.5980   -3.0090    4.7640 H         1 DSP1        0.0000
     56 H12S       -6.0890   -3.9080    4.3600 H         1 DSP1        0.0000
     57 C213       -4.2710   -5.0010    3.9500 C.3       1 DSP1        0.0000
     58 H13R       -3.4770   -5.4710    4.5630 H         1 DSP1        0.0000
     59 H13S       -3.7610   -4.4150    3.1490 H         1 DSP1        0.0000
     60 C214       -5.1040   -6.0880    3.2390 C.3       1 DSP1        0.0000
     61 H14R       -4.4210   -6.7580    2.6730 H         1 DSP1        0.0000
     62 H14S       -5.7220   -5.5550    2.4820 H         1 DSP1        0.0000
     63 C215       -6.0600   -6.9370    4.1050 C.3       1 DSP1        0.0000
     64 H15R       -6.9210   -7.1960    3.4460 H         1 DSP1        0.0000
     65 H15S       -6.4840   -6.3540    4.9450 H         1 DSP1        0.0000
     66 C216       -5.4910   -8.2880    4.5830 C.3       1 DSP1        0.0000
     67 H16R       -4.8620   -8.7180    3.7730 H         1 DSP1        0.0000
     68 H16S       -6.3440   -8.9880    4.7430 H         1 DSP1        0.0000
     69 C217       -4.6890   -8.2440    5.8930 C.3       1 DSP1        0.0000
     70 H17R       -3.9180   -7.4450    5.8220 H         1 DSP1        0.0000
     71 H17S       -4.1500   -9.2140    5.9980 H         1 DSP1        0.0000
     72 C218       -5.5450   -8.0440    7.1500 C.3       1 DSP1        0.0000
     73 H18R       -6.2690   -8.8780    7.2650 H         1 DSP1        0.0000
     74 H18S       -6.1220   -7.0980    7.0930 H         1 DSP1        0.0000
     75 H18T       -4.9020   -8.0040    8.0560 H         1 DSP1        0.0000
     76 C33        -6.9010   -1.5640   -1.4510 C.3       1 DSP1        0.0000
     77 H3X        -6.5030   -1.1850   -2.4200 H         1 DSP1        0.0000
     78 H3Y        -7.3140   -0.6930   -0.8950 H         1 DSP1        0.0000
     79 C34        -8.0210   -2.5680   -1.7560 C.3       1 DSP1        0.0000
     80 H4X        -8.3080   -3.0720   -0.8080 H         1 DSP1        0.0000
     81 H4Y        -7.6230   -3.3540   -2.4370 H         1 DSP1        0.0000
     82 C35        -9.2780   -1.9390   -2.3810 C.3       1 DSP1        0.0000
     83 H5X        -9.5050   -2.4800   -3.3290 H         1 DSP1        0.0000
     84 H5Y        -9.0870   -0.8760   -2.6430 H         1 DSP1        0.0000
     85 C36       -10.5080   -2.0410   -1.4640 C.3       1 DSP1        0.0000
     86 H6X       -10.5970   -3.0970   -1.1260 H         1 DSP1        0.0000
     87 H6Y       -11.4280   -1.8000   -2.0420 H         1 DSP1        0.0000
     88 C37       -10.4370   -1.1030   -0.2470 C.3       1 DSP1        0.0000
     89 H7X       -10.6570   -0.0680   -0.5940 H         1 DSP1        0.0000
     90 H7Y        -9.4040   -1.0890    0.1590 H         1 DSP1        0.0000
     91 C38       -11.4160   -1.4770    0.8820 C.3       1 DSP1        0.0000
     92 H8X       -12.4390   -1.5720    0.4530 H         1 DSP1        0.0000
     93 H8Y       -11.4380   -0.6410    1.6180 H         1 DSP1        0.0000
     94 C39       -11.0620   -2.7710    1.6420 C.3       1 DSP1        0.0000
     95 H9X       -11.0840   -3.6320    0.9420 H         1 DSP1        0.0000
     96 H9Y       -11.8470   -2.9520    2.4120 H         1 DSP1        0.0000
     97 C310       -9.6960   -2.7150    2.3470 C.3       1 DSP1        0.0000
     98 H10X       -9.6690   -1.8060    2.9900 H         1 DSP1        0.0000
     99 H10Y       -8.8900   -2.6040    1.5890 H         1 DSP1        0.0000
    100 C311       -9.3840   -3.9410    3.2240 C.3       1 DSP1        0.0000
    101 H11X      -10.1370   -4.0030    4.0420 H         1 DSP1        0.0000
    102 H11Y       -8.3890   -3.7800    3.6980 H         1 DSP1        0.0000
    103 C312       -9.3500   -5.2870    2.4780 C.3       1 DSP1        0.0000
    104 H12X      -10.3860   -5.5730    2.1890 H         1 DSP1        0.0000
    105 H12Y       -8.9740   -6.0650    3.1800 H         1 DSP1        0.0000
    106 C313       -8.4670   -5.2760    1.2190 C.3       1 DSP1        0.0000
    107 H13X       -7.5150   -4.7490    1.4490 H         1 DSP1        0.0000
    108 H13Y       -8.9880   -4.6910    0.4310 H         1 DSP1        0.0000
    109 C314       -8.1340   -6.6720    0.6610 C.3       1 DSP1        0.0000
    110 H14X       -7.4600   -7.1940    1.3740 H         1 DSP1        0.0000
    111 H14Y       -7.5710   -6.5480   -0.2910 H         1 DSP1        0.0000
    112 C315       -9.3530   -7.5730    0.4050 C.3       1 DSP1        0.0000
    113 H15X       -9.8870   -7.7610    1.3620 H         1 DSP1        0.0000
    114 H15Y       -8.9890   -8.5580    0.0330 H         1 DSP1        0.0000
    115 C316      -10.3400   -6.9980   -0.6200 C.3       1 DSP1        0.0000
    116 H16X       -9.7980   -6.7820   -1.5670 H         1 DSP1        0.0000
    117 H16Y      -10.7550   -6.0380   -0.2400 H         1 DSP1        0.0000
    118 C317      -11.5010   -7.9570   -0.9130 C.3       1 DSP1        0.0000
    119 H17X      -12.0300   -8.1800    0.0410 H         1 DSP1        0.0000
    120 H17Y      -11.0840   -8.9170   -1.2950 H         1 DSP1        0.0000
    121 C318      -12.5020   -7.4030   -1.9290 C.3       1 DSP1        0.0000
    122 H18X      -11.9980   -7.1920   -2.8960 H         1 DSP1        0.0000
    123 H18Y      -12.9510   -6.4570   -1.5540 H         1 DSP1        0.0000
    124 H18Z      -13.3200   -8.1330   -2.1090 H         1 DSP1        0.0000
@<TRIPOS>BOND
     1   83   82 1 
     2  122  121 1 
     3   84   82 1 
     4   81   79 1 
     5   77   76 1 
     6   82   79 1 
     7   82   85 1 
     8  124  121 1 
     9   87   85 1 
    10  121  123 1 
    11  121  118 1 
    12   79   76 1 
    13   79   80 1 
    14  116  115 1 
    15   85   86 1 
    16   85   88 1 
    17   76   78 1 
    18   76   24 1 
    19    3    1 2 
    20  120  118 1 
    21   23   22 2 
    22   26   24 1 
    23  118  115 1 
    24  118  119 1 
    25   20   18 1 
    26  115  117 1 
    27  115  112 1 
    28   24   22 1 
    29   24   25 1 
    30   89   88 1 
    31   22   21 1 
    32  111  109 1 
    33   88   90 1 
    34   88   91 1 
    35    5    4 1 
    36    6    1 1 
    37    6    7 1 
    38    1    4 1 
    39    1    2 1 
    40  114  112 1 
    41   21   18 1 
    42   18   19 1 
    43   18   10 1 
    44  112  109 1 
    45  112  113 1 
    46  108  106 1 
    47   92   91 1 
    48   11   10 1 
    49  109  106 1 
    50  109  110 1 
    51   91   93 1 
    52   91   94 1 
    53   95   94 1 
    54   10    7 1 
    55   10   12 1 
    56    7    8 1 
    57    7    9 1 
    58  106  107 1 
    59  106  103 1 
    60   99   97 1 
    61   94   97 1 
    62   94   96 1 
    63  104  103 1 
    64   97   98 1 
    65   97  100 1 
    66   12   13 1 
    67  103  105 1 
    68  103  100 1 
    69   62   60 1 
    70   61   60 1 
    71   14   13 2 
    72   59   57 1 
    73   13   15 1 
    74  100  102 1 
    75  100  101 1 
    76   60   57 1 
    77   60   63 1 
    78   64   63 1 
    79   67   66 1 
    80   57   58 1 
    81   57   54 1 
    82   63   66 1 
    83   63   65 1 
    84   56   54 1 
    85   66   68 1 
    86   66   69 1 
    87   15   16 1 
    88   15   27 1 
    89   15   17 1 
    90   29   27 1 
    91   28   27 1 
    92   55   54 1 
    93   54   51 1 
    94   27   30 1 
    95   70   69 1 
    96   69   71 1 
    97   69   72 1 
    98   41   39 1 
    99   40   39 1 
   100   35   33 1 
   101   51   53 1 
   102   51   52 1 
   103   51   48 1 
   104   44   42 1 
   105   30   32 1 
   106   30   31 1 
   107   30   33 1 
   108   39   42 1 
   109   39   36 1 
   110   49   48 1 
   111   33   36 1 
   112   33   34 1 
   113   74   72 1 
   114   72   73 1 
   115   72   75 1 
   116   42   43 1 
   117   42   45 1 
   118   48   50 1 
   119   48   45 1 
   120   36   38 1 
   121   36   37 1 
   122   45   47 1 
   123   45   46 1 
