@<TRIPOS>MOLECULE
C:\Users\Praveer\PycharmProjects\pdb_to_mol2_converter\data\pdb\dspc.pdb
  142   141     0     0     0
SMALL
GASTEIGER

@<TRIPOS>ATOM
      1 N           1.5010   -0.0160    0.0100 N.4       1 DSP1        0.0000
      2 C13         0.0050   -0.0120    0.0250 C.3       1 DSP1        0.0000
      3 H13A       -0.3760    0.4950    0.9010 H         1 DSP1        0.0000
      4 H13B       -0.3870   -1.0190    0.0010 H         1 DSP1        0.0000
      5 H13C       -0.3650    0.5130   -0.8510 H         1 DSP1        0.0000
      6 C14         2.0400   -0.7540    1.1970 C.3       1 DSP1        0.0000
      7 H14A        1.7040   -1.7830    1.1960 H         1 DSP1        0.0000
      8 H14B        1.7330   -0.2890    2.1240 H         1 DSP1        0.0000
      9 H14C        3.1270   -0.7610    1.1640 H         1 DSP1        0.0000
     10 C15         1.9900   -0.7070   -1.2330 C.3       1 DSP1        0.0000
     11 H15A        1.6980   -0.1530   -2.1300 H         1 DSP1        0.0000
     12 H15B        1.6530   -1.7240   -1.3180 H         1 DSP1        0.0000
     13 H15C        3.0810   -0.6770   -1.2780 H         1 DSP1        0.0000
     14 C12         2.0430    1.4060    0.0030 C.3       1 DSP1        0.0000
     15 H12A        3.1330    1.3550   -0.1090 H         1 DSP1        0.0000
     16 H12B        1.8640    1.9060    0.9420 H         1 DSP1        0.0000
     17 C11         1.5750    2.3220   -1.1460 C.3       1 DSP1        0.0000
     18 H11A        0.9480    3.1400   -0.7270 H         1 DSP1        0.0000
     19 H11B        0.9470    1.7930   -1.8990 H         1 DSP1        0.0000
     20 P           3.6900    1.9340   -2.5820 P.3       1 DSP1        0.0000
     21 O13         2.8650    1.1290   -3.5070 O.2       1 DSP1        0.0000
     22 O14         4.4830    1.1780   -1.5860 O.3       1 DSP1        0.0000
     23 O11         4.6160    2.9410   -3.3700 O.3       1 DSP1        0.0000
     24 O12         2.7240    2.8930   -1.7620 O.3       1 DSP1        0.0000
     25 C1          5.3240    3.9750   -2.6800 C.3       1 DSP1        0.0000
     26 HA          4.9410    4.1780   -1.6510 H         1 DSP1        0.0000
     27 HB          5.2000    4.9150   -3.2620 H         1 DSP1        0.0000
     28 C2          6.8430    3.6590   -2.6180 C.3       1 DSP1        0.0000
     29 HS          7.0390    2.9480   -1.7800 H         1 DSP1        0.0000
     30 O21         7.5850    4.8840   -2.4580 O.3       1 DSP1        0.0000
     31 C21         7.5140    5.4210   -1.2540 C.2       1 DSP1        0.0000
     32 O22         6.9800    4.9340   -0.2750 O.2       1 DSP1        0.0000
     33 C22         8.2310    6.7700   -1.2680 C.3       1 DSP1        0.0000
     34 H2R         9.2490    6.6060   -1.6780 H         1 DSP1        0.0000
     35 H2S         8.3190    7.1210   -0.2200 H         1 DSP1        0.0000
     36 C3          7.3100    2.9540   -3.9290 C.3       1 DSP1        0.0000
     37 HX          6.7820    3.4620   -4.7670 H         1 DSP1        0.0000
     38 HY          6.9630    1.8950   -3.9240 H         1 DSP1        0.0000
     39 O31         8.7310    3.0690   -4.1620 O.3       1 DSP1        0.0000
     40 C31         9.4930    2.2760   -3.4290 C.2       1 DSP1        0.0000
     41 O32         9.1100    1.4010   -2.6760 O.2       1 DSP1        0.0000
     42 C32        10.9530    2.6700   -3.6640 C.3       1 DSP1        0.0000
     43 H2X        11.0880    3.6820   -3.2270 H         1 DSP1        0.0000
     44 H2Y        11.1270    2.7340   -4.7570 H         1 DSP1        0.0000
     45 C23         7.4810    7.8140   -2.1250 C.3       1 DSP1        0.0000
     46 H3R         7.2900    7.4110   -3.1460 H         1 DSP1        0.0000
     47 H3S         8.1420    8.7030   -2.2370 H         1 DSP1        0.0000
     48 C24         6.1580    8.2680   -1.4910 C.3       1 DSP1        0.0000
     49 H4R         6.3730    8.7430   -0.5070 H         1 DSP1        0.0000
     50 H4S         5.5220    7.3740   -1.2970 H         1 DSP1        0.0000
     51 C25         5.3400    9.2510   -2.3510 C.3       1 DSP1        0.0000
     52 H5R         4.4020    9.4720   -1.7900 H         1 DSP1        0.0000
     53 H5S         5.0450    8.7660   -3.3070 H         1 DSP1        0.0000
     54 C26         6.0450   10.5870   -2.6430 C.3       1 DSP1        0.0000
     55 H6R         6.7320   10.8280   -1.8060 H         1 DSP1        0.0000
     56 H6S         5.2770   11.3940   -2.6750 H         1 DSP1        0.0000
     57 C27         6.7820   10.6080   -3.9940 C.3       1 DSP1        0.0000
     58 H7R         6.0090   10.5160   -4.7910 H         1 DSP1        0.0000
     59 H7S         7.4540    9.7300   -4.0920 H         1 DSP1        0.0000
     60 C28         7.5930   11.8920   -4.2460 C.3       1 DSP1        0.0000
     61 H8R         7.1260   12.7510   -3.7180 H         1 DSP1        0.0000
     62 H8S         7.5440   12.1090   -5.3390 H         1 DSP1        0.0000
     63 C29         9.0850   11.7790   -3.8800 C.3       1 DSP1        0.0000
     64 H9R         9.6120   12.6740   -4.2840 H         1 DSP1        0.0000
     65 H9S         9.5120   10.8860   -4.3850 H         1 DSP1        0.0000
     66 C210        9.3650   11.7060   -2.3710 C.3       1 DSP1        0.0000
     67 H10R        8.8720   10.8170   -1.9250 H         1 DSP1        0.0000
     68 H10S        8.9100   12.6100   -1.9050 H         1 DSP1        0.0000
     69 C211       10.8620   11.6750   -2.0170 C.3       1 DSP1        0.0000
     70 H11R       10.9970   12.2660   -1.0810 H         1 DSP1        0.0000
     71 H11S       11.4540   12.1820   -2.8080 H         1 DSP1        0.0000
     72 C212       11.4220   10.2670   -1.7360 C.3       1 DSP1        0.0000
     73 H12R       10.8050    9.7970   -0.9370 H         1 DSP1        0.0000
     74 H12S       12.4530   10.3730   -1.3310 H         1 DSP1        0.0000
     75 C213       11.4670    9.3120   -2.9430 C.3       1 DSP1        0.0000
     76 H13R       10.4280    9.1170   -3.2920 H         1 DSP1        0.0000
     77 H13S       11.8870    8.3390   -2.6010 H         1 DSP1        0.0000
     78 C214       12.3090    9.8050   -4.1340 C.3       1 DSP1        0.0000
     79 H14R       11.8230   10.6980   -4.5840 H         1 DSP1        0.0000
     80 H14S       12.3200    9.0060   -4.9090 H         1 DSP1        0.0000
     81 C215       13.7600   10.1590   -3.7700 C.3       1 DSP1        0.0000
     82 H15R       14.1900    9.3300   -3.1650 H         1 DSP1        0.0000
     83 H15S       13.7690   11.0690   -3.1300 H         1 DSP1        0.0000
     84 C216       14.6620   10.3860   -4.9960 C.3       1 DSP1        0.0000
     85 H16R       14.7180    9.4380   -5.5770 H         1 DSP1        0.0000
     86 H16S       15.6910   10.6190   -4.6390 H         1 DSP1        0.0000
     87 C217       14.2040   11.5150   -5.9360 C.3       1 DSP1        0.0000
     88 H17R       13.2210   11.2410   -6.3800 H         1 DSP1        0.0000
     89 H17S       14.9320   11.5820   -6.7770 H         1 DSP1        0.0000
     90 C218       14.0890   12.8910   -5.2720 C.3       1 DSP1        0.0000
     91 H18R       15.0530   13.1740   -4.7970 H         1 DSP1        0.0000
     92 H18S       13.2990   12.8850   -4.4910 H         1 DSP1        0.0000
     93 H18T       13.8270   13.6650   -6.0260 H         1 DSP1        0.0000
     94 C33        11.9630    1.6930   -3.0230 C.3       1 DSP1        0.0000
     95 H3X        11.9220    0.7120   -3.5480 H         1 DSP1        0.0000
     96 H3Y        11.6990    1.5150   -1.9550 H         1 DSP1        0.0000
     97 C34        13.3900    2.2520   -3.0830 C.3       1 DSP1        0.0000
     98 H4X        13.4220    3.1930   -2.4900 H         1 DSP1        0.0000
     99 H4Y        13.6390    2.5100   -4.1370 H         1 DSP1        0.0000
    100 C35        14.4540    1.2820   -2.5520 C.3       1 DSP1        0.0000
    101 H5X        14.4970    0.4050   -3.2370 H         1 DSP1        0.0000
    102 H5Y        14.1630    0.9090   -1.5450 H         1 DSP1        0.0000
    103 C36        15.8470    1.9270   -2.4710 C.3       1 DSP1        0.0000
    104 H6X        16.0220    2.5210   -3.3940 H         1 DSP1        0.0000
    105 H6Y        16.6200    1.1260   -2.4390 H         1 DSP1        0.0000
    106 C37        16.0280    2.8130   -1.2270 C.3       1 DSP1        0.0000
    107 H7X        16.0330    2.1460   -0.3340 H         1 DSP1        0.0000
    108 H7Y        15.1660    3.5000   -1.1110 H         1 DSP1        0.0000
    109 C38        17.3300    3.6290   -1.2400 C.3       1 DSP1        0.0000
    110 H8X        18.1660    2.9480   -1.5170 H         1 DSP1        0.0000
    111 H8Y        17.5340    4.0000   -0.2100 H         1 DSP1        0.0000
    112 C39        17.3320    4.8410   -2.1940 C.3       1 DSP1        0.0000
    113 H9X        17.0620    4.5320   -3.2230 H         1 DSP1        0.0000
    114 H9Y        18.3850    5.2080   -2.2360 H         1 DSP1        0.0000
    115 C310       16.4600    6.0240   -1.7280 C.3       1 DSP1        0.0000
    116 H10X       17.0010    6.9690   -1.9650 H         1 DSP1        0.0000
    117 H10Y       16.3560    5.9780   -0.6210 H         1 DSP1        0.0000
    118 C311       15.0640    6.1280   -2.3720 C.3       1 DSP1        0.0000
    119 H11X       14.5230    6.9540   -1.8530 H         1 DSP1        0.0000
    120 H11Y       14.4810    5.2010   -2.1990 H         1 DSP1        0.0000
    121 C312       15.0880    6.4550   -3.8750 C.3       1 DSP1        0.0000
    122 H12X       16.0980    6.8260   -4.1490 H         1 DSP1        0.0000
    123 H12Y       14.3690    7.2810   -4.0760 H         1 DSP1        0.0000
    124 C313       14.6850    5.2730   -4.7710 C.3       1 DSP1        0.0000
    125 H13X       13.6320    5.0110   -4.5180 H         1 DSP1        0.0000
    126 H13Y       15.3080    4.3820   -4.5460 H         1 DSP1        0.0000
    127 C314       14.7620    5.5870   -6.2750 C.3       1 DSP1        0.0000
    128 H14X       14.6150    6.6760   -6.4400 H         1 DSP1        0.0000
    129 H14Y       13.9150    5.0640   -6.7770 H         1 DSP1        0.0000
    130 C315       16.0550    5.1060   -6.9620 C.3       1 DSP1        0.0000
    131 H15X       15.9810    5.3190   -8.0520 H         1 DSP1        0.0000
    132 H15Y       16.1200    4.0000   -6.8430 H         1 DSP1        0.0000
    133 C316       17.3600    5.7260   -6.4320 C.3       1 DSP1        0.0000
    134 H16X       18.2180    5.2280   -6.9390 H         1 DSP1        0.0000
    135 H16Y       17.4570    5.5140   -5.3450 H         1 DSP1        0.0000
    136 C317       17.4750    7.2380   -6.6710 C.3       1 DSP1        0.0000
    137 H17X       16.6160    7.7540   -6.1880 H         1 DSP1        0.0000
    138 H17Y       17.4080    7.4340   -7.7650 H         1 DSP1        0.0000
    139 C318       18.7780    7.8320   -6.1280 C.3       1 DSP1        0.0000
    140 H18X       19.6560    7.3520   -6.6130 H         1 DSP1        0.0000
    141 H18Y       18.8520    7.6670   -5.0310 H         1 DSP1        0.0000
    142 H18Z       18.8220    8.9250   -6.3230 H         1 DSP1        0.0000
@<TRIPOS>BOND
     1  131  130 1 
     2  138  136 1 
     3  130  132 1 
     4  130  133 1 
     5  130  127 1 
     6  134  133 1 
     7   89   87 1 
     8  129  127 1 
     9  136  133 1 
    10  136  137 1 
    11  136  139 1 
    12  140  139 1 
    13  128  127 1 
    14  133  135 1 
    15   88   87 1 
    16  142  139 1 
    17  127  124 1 
    18  139  141 1 
    19   93   90 1 
    20   87   90 1 
    21   87   84 1 
    22   85   84 1 
    23   62   60 1 
    24   90   91 1 
    25   90   92 1 
    26   84   86 1 
    27   84   81 1 
    28   80   78 1 
    29   58   57 1 
    30  124  126 1 
    31  124  125 1 
    32  124  121 1 
    33   37   36 1 
    34   44   42 1 
    35   79   78 1 
    36   65   63 1 
    37   64   63 1 
    38   60   57 1 
    39   60   63 1 
    40   60   61 1 
    41   39   36 1 
    42   39   40 1 
    43  122  121 1 
    44   99   97 1 
    45   78   81 1 
    46   78   75 1 
    47   59   57 1 
    48  123  121 1 
    49   57   54 1 
    50   36   38 1 
    51   36   28 1 
    52   63   66 1 
    53  121  118 1 
    54   81   82 1 
    55   81   83 1 
    56   42   40 1 
    57   42   43 1 
    58   42   94 1 
    59   95   94 1 
    60   21   20 2 
    61   40   41 2 
    62  104  103 1 
    63   23   25 1 
    64   23   20 1 
    65   53   51 1 
    66   76   75 1 
    67   27   25 1 
    68  101  100 1 
    69  113  112 1 
    70   46   45 1 
    71   97   94 1 
    72   97  100 1 
    73   97   98 1 
    74   94   96 1 
    75   75   77 1 
    76   75   72 1 
    77   71   69 1 
    78   25   28 1 
    79   25   26 1 
    80   56   54 1 
    81   54   51 1 
    82   54   55 1 
    83   28   30 1 
    84   28   29 1 
    85   20   24 1 
    86   20   22 1 
    87  100  103 1 
    88  100  102 1 
    89  103  105 1 
    90  103  106 1 
    91   30   31 1 
    92  118  120 1 
    93  118  119 1 
    94  118  115 1 
    95   66   69 1 
    96   66   67 1 
    97   66   68 1 
    98   51   52 1 
    99   51   48 1 
   100   47   45 1 
   101  114  112 1 
   102  112  115 1 
   103  112  109 1 
   104   11   10 1 
   105   45   48 1 
   106   45   33 1 
   107   69   72 1 
   108   69   70 1 
   109  116  115 1 
   110   19   17 1 
   111   24   17 1 
   112   72   74 1 
   113   72   73 1 
   114  115  117 1 
   115   34   33 1 
   116  110  109 1 
   117   48   50 1 
   118   48   49 1 
   119   12   10 1 
   120   13   10 1 
   121   33   31 1 
   122   33   35 1 
   123   31   32 2 
   124  109  106 1 
   125  109  111 1 
   126   10    1 1 
   127  106  108 1 
   128  106  107 1 
   129   17   18 1 
   130   17   14 1 
   131    5    2 1 
   132   15   14 1 
   133    4    2 1 
   134   14    1 1 
   135   14   16 1 
   136    1    2 1 
   137    1    6 1 
   138    2    3 1 
   139    9    6 1 
   140    7    6 1 
   141    6    8 1 
