@<TRIPOS>MOLECULE
C:\Users\Praveer\PycharmProjects\pdb_to_mol2_converter\data\pdb\dspe.pdb
  133   132     0     0     0
SMALL
GASTEIGER

@<TRIPOS>ATOM
      1 N           0.1020   -0.0060    0.0320 N.4       1 DSP1        0.0000
      2 HN1        -0.2460   -0.5480   -0.8020 H         1 DSP1        0.0000
      3 HN2        -0.2570    0.9850   -0.1160 H         1 DSP1        0.0000
      4 HN3        -0.3010   -0.3670    0.9110 H         1 DSP1        0.0000
      5 C12         1.6060    0.0730    0.0220 C.3       1 DSP1        0.0000
      6 H12A        1.9640   -0.4460   -0.8940 H         1 DSP1        0.0000
      7 H12B        1.9860   -0.4530    0.9200 H         1 DSP1        0.0000
      8 C11         2.0810    1.5390   -0.0040 C.3       1 DSP1        0.0000
      9 H11A        3.1950    1.5400    0.0230 H         1 DSP1        0.0000
     10 H11B        1.7410    2.0820    0.9110 H         1 DSP1        0.0000
     11 P           0.4090    3.1430   -1.2650 P.3       1 DSP1        0.0000
     12 O13         0.8110    4.4960   -0.8520 O.2       1 DSP1        0.0000
     13 O14        -0.6430    2.4450   -0.4850 O.3       1 DSP1        0.0000
     14 O11         0.0140    3.0950   -2.7950 O.3       1 DSP1        0.0000
     15 O12         1.6690    2.1820   -1.2080 O.3       1 DSP1        0.0000
     16 C1          0.9130    2.6070   -3.7910 C.3       1 DSP1        0.0000
     17 HA          1.9750    2.8660   -3.5710 H         1 DSP1        0.0000
     18 HB          0.6620    3.0930   -4.7600 H         1 DSP1        0.0000
     19 C2          0.7730    1.0770   -3.9790 C.3       1 DSP1        0.0000
     20 HS          1.0620    0.5920   -3.0180 H         1 DSP1        0.0000
     21 O21         1.6100    0.7060   -5.0900 O.3       1 DSP1        0.0000
     22 C21         2.7070    0.0370   -4.7710 C.2       1 DSP1        0.0000
     23 O22         2.9220   -0.5050   -3.7020 O.2       1 DSP1        0.0000
     24 C22         3.7190    0.0780   -5.9250 C.3       1 DSP1        0.0000
     25 H2R         4.0250   -0.9650   -6.1430 H         1 DSP1        0.0000
     26 H2S         4.6070    0.6260   -5.5430 H         1 DSP1        0.0000
     27 C3         -0.7050    0.6810   -4.2610 C.3       1 DSP1        0.0000
     28 HX         -1.0180    1.2260   -5.1800 H         1 DSP1        0.0000
     29 HY         -1.3500    1.0530   -3.4310 H         1 DSP1        0.0000
     30 O31        -0.8800   -0.7360   -4.4790 O.3       1 DSP1        0.0000
     31 C31        -0.8850   -1.5020   -3.4040 C.2       1 DSP1        0.0000
     32 O32        -0.7330   -1.1260   -2.2500 O.2       1 DSP1        0.0000
     33 C32        -1.1260   -2.9480   -3.8250 C.3       1 DSP1        0.0000
     34 H2X        -0.2520   -3.2830   -4.4200 H         1 DSP1        0.0000
     35 H2Y        -2.0260   -2.9710   -4.4740 H         1 DSP1        0.0000
     36 C23         3.2230    0.7650   -7.2220 C.3       1 DSP1        0.0000
     37 H3R         2.7590    1.7510   -6.9860 H         1 DSP1        0.0000
     38 H3S         2.4420    0.1330   -7.6970 H         1 DSP1        0.0000
     39 C24         4.3610    1.0180   -8.2230 C.3       1 DSP1        0.0000
     40 H4R         4.9520    0.0880   -8.3760 H         1 DSP1        0.0000
     41 H4S         5.0460    1.7750   -7.7770 H         1 DSP1        0.0000
     42 C25         3.8680    1.5380   -9.5860 C.3       1 DSP1        0.0000
     43 H5R         4.5340    2.3740   -9.9030 H         1 DSP1        0.0000
     44 H5S         2.8450    1.9600   -9.4780 H         1 DSP1        0.0000
     45 C26         3.8920    0.4820  -10.7080 C.3       1 DSP1        0.0000
     46 H6R         4.9480    0.1560  -10.8470 H         1 DSP1        0.0000
     47 H6S         3.5610    0.9530  -11.6610 H         1 DSP1        0.0000
     48 C27         3.0320   -0.7660  -10.4450 C.3       1 DSP1        0.0000
     49 H7R         3.2910   -1.1860   -9.4510 H         1 DSP1        0.0000
     50 H7S         3.2890   -1.5400  -11.2040 H         1 DSP1        0.0000
     51 C28         1.5200   -0.5040  -10.5320 C.3       1 DSP1        0.0000
     52 H8R         1.2850   -0.1910  -11.5750 H         1 DSP1        0.0000
     53 H8S         1.2410    0.3390   -9.8650 H         1 DSP1        0.0000
     54 C29         0.6720   -1.7420  -10.1860 C.3       1 DSP1        0.0000
     55 H9R         1.0840   -2.6130  -10.7440 H         1 DSP1        0.0000
     56 H9S        -0.3670   -1.5830  -10.5490 H         1 DSP1        0.0000
     57 C210        0.6310   -2.0830   -8.6840 C.3       1 DSP1        0.0000
     58 H10R        1.6700   -2.0950   -8.2900 H         1 DSP1        0.0000
     59 H10S        0.2240   -3.1090   -8.5550 H         1 DSP1        0.0000
     60 C211       -0.2140   -1.1120   -7.8380 C.3       1 DSP1        0.0000
     61 H11R        0.0730   -0.0670   -8.0860 H         1 DSP1        0.0000
     62 H11S        0.0290   -1.2640   -6.7630 H         1 DSP1        0.0000
     63 C212       -1.7340   -1.2720   -8.0180 C.3       1 DSP1        0.0000
     64 H12R       -1.9860   -1.2910   -9.0990 H         1 DSP1        0.0000
     65 H12S       -2.2310   -0.3710   -7.5870 H         1 DSP1        0.0000
     66 C213       -2.3130   -2.5130   -7.3150 C.3       1 DSP1        0.0000
     67 H13R       -2.9560   -2.1640   -6.4750 H         1 DSP1        0.0000
     68 H13S       -1.4870   -3.1110   -6.8720 H         1 DSP1        0.0000
     69 C214       -3.1490   -3.4270   -8.2270 C.3       1 DSP1        0.0000
     70 H14R       -3.9030   -2.8180   -8.7730 H         1 DSP1        0.0000
     71 H14S       -3.7000   -4.1530   -7.5860 H         1 DSP1        0.0000
     72 C215       -2.3000   -4.2250   -9.2280 C.3       1 DSP1        0.0000
     73 H15R       -1.5470   -4.8190   -8.6630 H         1 DSP1        0.0000
     74 H15S       -1.7490   -3.5170   -9.8850 H         1 DSP1        0.0000
     75 C216       -3.1360   -5.1770  -10.0950 C.3       1 DSP1        0.0000
     76 H16R       -3.7950   -4.5750  -10.7600 H         1 DSP1        0.0000
     77 H16S       -3.7920   -5.7870   -9.4340 H         1 DSP1        0.0000
     78 C217       -2.2880   -6.1320  -10.9510 C.3       1 DSP1        0.0000
     79 H17R       -2.9780   -6.7870  -11.5320 H         1 DSP1        0.0000
     80 H17S       -1.7000   -6.7920  -10.2710 H         1 DSP1        0.0000
     81 C218       -1.3290   -5.4350  -11.9210 C.3       1 DSP1        0.0000
     82 H18R       -0.5510   -4.8670  -11.3670 H         1 DSP1        0.0000
     83 H18S       -1.8830   -4.7260  -12.5720 H         1 DSP1        0.0000
     84 H18T       -0.8190   -6.1810  -12.5680 H         1 DSP1        0.0000
     85 C33        -1.3420   -3.8860   -2.6180 C.3       1 DSP1        0.0000
     86 H3X        -2.2170   -3.5360   -2.0230 H         1 DSP1        0.0000
     87 H3Y        -0.4490   -3.8690   -1.9520 H         1 DSP1        0.0000
     88 C34        -1.6000   -5.3310   -3.0600 C.3       1 DSP1        0.0000
     89 H4X        -0.7020   -5.7090   -3.5970 H         1 DSP1        0.0000
     90 H4Y        -2.4530   -5.3470   -3.7760 H         1 DSP1        0.0000
     91 C35        -1.9310   -6.2630   -1.8840 C.3       1 DSP1        0.0000
     92 H5X        -2.8340   -5.8650   -1.3680 H         1 DSP1        0.0000
     93 H5Y        -1.0950   -6.2610   -1.1510 H         1 DSP1        0.0000
     94 C36        -2.2190   -7.7070   -2.3250 C.3       1 DSP1        0.0000
     95 H6X        -2.9510   -7.6830   -3.1610 H         1 DSP1        0.0000
     96 H6Y        -2.6960   -8.2550   -1.4800 H         1 DSP1        0.0000
     97 C37        -0.9600   -8.4820   -2.7460 C.3       1 DSP1        0.0000
     98 H7X        -0.2870   -8.5580   -1.8620 H         1 DSP1        0.0000
     99 H7Y        -0.4060   -7.9230   -3.5280 H         1 DSP1        0.0000
    100 C38        -1.2540   -9.9020   -3.2610 C.3       1 DSP1        0.0000
    101 H8X        -1.7960  -10.4570   -2.4620 H         1 DSP1        0.0000
    102 H8Y        -0.2870  -10.4270   -3.4320 H         1 DSP1        0.0000
    103 C39        -2.0840   -9.9770   -4.5580 C.3       1 DSP1        0.0000
    104 H9X        -3.0650   -9.4870   -4.4150 H         1 DSP1        0.0000
    105 H9Y        -2.2910  -11.0580   -4.7390 H         1 DSP1        0.0000
    106 C310       -1.3740   -9.4350   -5.8150 C.3       1 DSP1        0.0000
    107 H10X       -1.7020  -10.0280   -6.6990 H         1 DSP1        0.0000
    108 H10Y       -0.2820   -9.6150   -5.6900 H         1 DSP1        0.0000
    109 C311       -1.6030   -7.9440   -6.1390 C.3       1 DSP1        0.0000
    110 H11X       -0.7320   -7.6200   -6.7580 H         1 DSP1        0.0000
    111 H11Y       -1.5970   -7.3240   -5.2220 H         1 DSP1        0.0000
    112 C312       -2.8640   -7.6440   -6.9700 C.3       1 DSP1        0.0000
    113 H12X       -3.0110   -8.4500   -7.7200 H         1 DSP1        0.0000
    114 H12Y       -2.6880   -6.6970   -7.5310 H         1 DSP1        0.0000
    115 C313       -4.1370   -7.4440   -6.1340 C.3       1 DSP1        0.0000
    116 H13X       -3.9450   -6.6460   -5.3820 H         1 DSP1        0.0000
    117 H13Y       -4.3700   -8.3730   -5.5760 H         1 DSP1        0.0000
    118 C314       -5.3700   -7.0490   -6.9670 C.3       1 DSP1        0.0000
    119 H14X       -5.1670   -6.0790   -7.4740 H         1 DSP1        0.0000
    120 H14Y       -6.2260   -6.8910   -6.2730 H         1 DSP1        0.0000
    121 C315       -5.7880   -8.0850   -8.0260 C.3       1 DSP1        0.0000
    122 H15X       -4.9890   -8.1770   -8.7940 H         1 DSP1        0.0000
    123 H15Y       -6.7020   -7.7120   -8.5420 H         1 DSP1        0.0000
    124 C316       -6.0860   -9.4750   -7.4430 C.3       1 DSP1        0.0000
    125 H16X       -6.8480   -9.3770   -6.6380 H         1 DSP1        0.0000
    126 H16Y       -5.1610   -9.8920   -6.9860 H         1 DSP1        0.0000
    127 C317       -6.5950  -10.4690   -8.4950 C.3       1 DSP1        0.0000
    128 H17X       -5.8320  -10.5580   -9.3020 H         1 DSP1        0.0000
    129 H17Y       -7.5240  -10.0620   -8.9550 H         1 DSP1        0.0000
    130 C318       -6.8830  -11.8580   -7.9190 C.3       1 DSP1        0.0000
    131 H18X       -7.6600  -11.7970   -7.1270 H         1 DSP1        0.0000
    132 H18Y       -5.9620  -12.2910   -7.4720 H         1 DSP1        0.0000
    133 H18Z       -7.2440  -12.5450   -8.7140 H         1 DSP1        0.0000
@<TRIPOS>BOND
     1   83   81 1 
     2   84   81 1 
     3   81   82 1 
     4   81   78 1 
     5   47   45 1 
     6   52   51 1 
     7   79   78 1 
     8   50   48 1 
     9   78   80 1 
    10   78   75 1 
    11   46   45 1 
    12   76   75 1 
    13   55   54 1 
    14   45   48 1 
    15   45   42 1 
    16   56   54 1 
    17   51   48 1 
    18   51   54 1 
    19   51   53 1 
    20   48   49 1 
    21   54   57 1 
    22   75   77 1 
    23   75   72 1 
    24   43   42 1 
    25   74   72 1 
    26   42   44 1 
    27   42   39 1 
    28  128  127 1 
    29   72   73 1 
    30   72   69 1 
    31   64   63 1 
    32  129  127 1 
    33  122  121 1 
    34   70   69 1 
    35  133  130 1 
    36   57   59 1 
    37   57   58 1 
    38   57   60 1 
    39  123  121 1 
    40  127  130 1 
    41  127  124 1 
    42   40   39 1 
    43   69   71 1 
    44   69   66 1 
    45   39   41 1 
    46   39   36 1 
    47   61   60 1 
    48  121  124 1 
    49  121  118 1 
    50   63   60 1 
    51   63   65 1 
    52   63   66 1 
    53  130  132 1 
    54  130  131 1 
    55   60   62 1 
    56  113  112 1 
    57   38   36 1 
    58  114  112 1 
    59  119  118 1 
    60  124  126 1 
    61  124  125 1 
    62   66   68 1 
    63   66   67 1 
    64   36   37 1 
    65   36   24 1 
    66  112  109 1 
    67  112  115 1 
    68  118  120 1 
    69  118  115 1 
    70  110  109 1 
    71  107  106 1 
    72   25   24 1 
    73  109  106 1 
    74  109  111 1 
    75  115  117 1 
    76  115  116 1 
    77   24   26 1 
    78   24   22 1 
    79  106  108 1 
    80  106  103 1 
    81   28   27 1 
    82   21   22 1 
    83   21   19 1 
    84   22   23 2 
    85   18   16 1 
    86  105  103 1 
    87  103  104 1 
    88  103  100 1 
    89   30   27 1 
    90   30   31 1 
    91   35   33 1 
    92   34   33 1 
    93   27   19 1 
    94   27   29 1 
    95   19   16 1 
    96   19   20 1 
    97   33   31 1 
    98   33   85 1 
    99   16   17 1 
   100   16   14 1 
   101   90   88 1 
   102   89   88 1 
   103   99   97 1 
   104  102  100 1 
   105   31   32 2 
   106  100   97 1 
   107  100  101 1 
   108   95   94 1 
   109   88   85 1 
   110   88   91 1 
   111   14   11 1 
   112   97   94 1 
   113   97   98 1 
   114   85   86 1 
   115   85   87 1 
   116   94   91 1 
   117   94   96 1 
   118   91   92 1 
   119   91   93 1 
   120   11   15 1 
   121   11   12 2 
   122   11   13 1 
   123   15    8 1 
   124    6    5 1 
   125    2    1 1 
   126    3    1 1 
   127    8    5 1 
   128    8    9 1 
   129    8   10 1 
   130    5    1 1 
   131    5    7 1 
   132    1    4 1 
