@<TRIPOS>MOLECULE
C:\Users\Praveer\PycharmProjects\pdb_to_mol2_converter\data\pdb\dspg.pdb
  135   134     0     0     0
SMALL
GASTEIGER

@<TRIPOS>ATOM
      1 C13         0.0220    0.0570   -0.0210 C.3       1 DSP1        0.0000
      2 H13A       -0.3330    0.6390   -0.8980 H         1 DSP1        0.0000
      3 H13B       -0.3560   -0.9850   -0.1090 H         1 DSP1        0.0000
      4 OC3        -0.4970    0.6370    1.1750 O.3       1 DSP1        0.0000
      5 HO3         0.1420    0.3630    1.8480 H         1 DSP1        0.0000
      6 C12         1.5740    0.0220   -0.0120 C.3       1 DSP1        0.0000
      7 H12A        1.9190   -0.5160   -0.9240 H         1 DSP1        0.0000
      8 OC2         2.0600   -0.6830    1.1240 O.3       1 DSP1        0.0000
      9 HO2         2.9610   -0.3300    1.1860 H         1 DSP1        0.0000
     10 C11         2.2380    1.4160   -0.0140 C.3       1 DSP1        0.0000
     11 H11A        1.8730    1.9990    0.8630 H         1 DSP1        0.0000
     12 H11B        1.9190    1.9460   -0.9430 H         1 DSP1        0.0000
     13 P           4.5750    2.5110   -0.3120 P.3       1 DSP1        0.0000
     14 O13         3.9840    3.7250    0.2880 O.3       1 DSP1        0.0000
     15 O14         4.8380    2.5070   -1.7660 O.2       1 DSP1        0.0000
     16 O12         3.6600    1.2660    0.0530 O.3       1 DSP1        0.0000
     17 O11         5.9070    2.1510    0.4770 O.3       1 DSP1        0.0000
     18 C1          5.8180    2.0120    1.8970 C.3       1 DSP1        0.0000
     19 HA          5.0480    1.2610    2.1930 H         1 DSP1        0.0000
     20 HB          5.5450    2.9950    2.3500 H         1 DSP1        0.0000
     21 C2          7.1860    1.5830    2.4990 C.3       1 DSP1        0.0000
     22 HS          7.2830    0.4750    2.4080 H         1 DSP1        0.0000
     23 O21         7.2480    2.0180    3.8740 O.3       1 DSP1        0.0000
     24 C21         6.4400    1.3400    4.6730 C.2       1 DSP1        0.0000
     25 O22         5.9100    0.2720    4.4200 O.2       1 DSP1        0.0000
     26 C22         6.2230    2.1110    5.9720 C.3       1 DSP1        0.0000
     27 H2R         7.1940    2.2070    6.4970 H         1 DSP1        0.0000
     28 H2S         5.5390    1.4960    6.5940 H         1 DSP1        0.0000
     29 C3          8.3690    2.2070    1.6990 C.3       1 DSP1        0.0000
     30 HX          8.2260    3.3100    1.7290 H         1 DSP1        0.0000
     31 HY          8.2840    1.9040    0.6290 H         1 DSP1        0.0000
     32 O31         9.6770    1.8900    2.2380 O.3       1 DSP1        0.0000
     33 C31        10.1330    0.6810    1.9230 C.2       1 DSP1        0.0000
     34 O32         9.5210   -0.1800    1.3240 O.2       1 DSP1        0.0000
     35 C32        11.5860    0.5590    2.3910 C.3       1 DSP1        0.0000
     36 H2X        11.6080    0.6770    3.4930 H         1 DSP1        0.0000
     37 H2Y        12.1490    1.3970    1.9290 H         1 DSP1        0.0000
     38 C23         5.5910    3.5030    5.7340 C.3       1 DSP1        0.0000
     39 H3R         4.7690    3.4320    4.9840 H         1 DSP1        0.0000
     40 H3S         6.3630    4.1850    5.3150 H         1 DSP1        0.0000
     41 C24         4.9980    4.0950    7.0220 C.3       1 DSP1        0.0000
     42 H4R         5.7400    4.0060    7.8460 H         1 DSP1        0.0000
     43 H4S         4.1140    3.4840    7.3120 H         1 DSP1        0.0000
     44 C25         4.5700    5.5690    6.8920 C.3       1 DSP1        0.0000
     45 H5R         3.5220    5.6600    7.2590 H         1 DSP1        0.0000
     46 H5S         4.5750    5.8780    5.8240 H         1 DSP1        0.0000
     47 C26         5.4470    6.5250    7.7220 C.3       1 DSP1        0.0000
     48 H6R         5.4960    6.1260    8.7570 H         1 DSP1        0.0000
     49 H6S         4.9600    7.5240    7.7820 H         1 DSP1        0.0000
     50 C27         6.8630    6.7050    7.1510 C.3       1 DSP1        0.0000
     51 H7R         6.8560    7.5780    6.4610 H         1 DSP1        0.0000
     52 H7S         7.1220    5.8250    6.5290 H         1 DSP1        0.0000
     53 C28         7.9660    6.9040    8.2100 C.3       1 DSP1        0.0000
     54 H8R         7.7020    7.7900    8.8290 H         1 DSP1        0.0000
     55 H8S         8.9130    7.1480    7.6810 H         1 DSP1        0.0000
     56 C29         8.2200    5.7050    9.1510 C.3       1 DSP1        0.0000
     57 H9R         7.2970    5.5490    9.7520 H         1 DSP1        0.0000
     58 H9S         9.0280    5.9670    9.8700 H         1 DSP1        0.0000
     59 C210        8.5720    4.3610    8.4780 C.3       1 DSP1        0.0000
     60 H10R        8.0530    4.2520    7.5060 H         1 DSP1        0.0000
     61 H10S        8.1770    3.5520    9.1370 H         1 DSP1        0.0000
     62 C211       10.0780    4.0830    8.3060 C.3       1 DSP1        0.0000
     63 H11R       10.1960    3.0490    7.9070 H         1 DSP1        0.0000
     64 H11S       10.5630    4.1110    9.3070 H         1 DSP1        0.0000
     65 C212       10.8260    5.0420    7.3660 C.3       1 DSP1        0.0000
     66 H12R       11.8890    4.7190    7.3120 H         1 DSP1        0.0000
     67 H12S       10.8180    6.0610    7.8110 H         1 DSP1        0.0000
     68 C213       10.2460    5.0960    5.9430 C.3       1 DSP1        0.0000
     69 H13R        9.2490    5.5850    5.9810 H         1 DSP1        0.0000
     70 H13S       10.0910    4.0600    5.5670 H         1 DSP1        0.0000
     71 C214       11.1170    5.8600    4.9310 C.3       1 DSP1        0.0000
     72 H14R       10.5210    6.0340    4.0070 H         1 DSP1        0.0000
     73 H14S       11.9830    5.2250    4.6500 H         1 DSP1        0.0000
     74 C215       11.6620    7.1990    5.4480 C.3       1 DSP1        0.0000
     75 H15R       12.3650    7.0000    6.2880 H         1 DSP1        0.0000
     76 H15S       10.8240    7.8150    5.8400 H         1 DSP1        0.0000
     77 C216       12.4170    7.9840    4.3650 C.3       1 DSP1        0.0000
     78 H16R       11.6820    8.3980    3.6390 H         1 DSP1        0.0000
     79 H16S       13.0770    7.2820    3.8080 H         1 DSP1        0.0000
     80 C217       13.2890    9.1180    4.9250 C.3       1 DSP1        0.0000
     81 H17R       13.7930    9.6290    4.0730 H         1 DSP1        0.0000
     82 H17S       14.0880    8.6690    5.5590 H         1 DSP1        0.0000
     83 C218       12.5240   10.1570    5.7500 C.3       1 DSP1        0.0000
     84 H18R       12.0800    9.6910    6.6560 H         1 DSP1        0.0000
     85 H18S       11.7050   10.6050    5.1480 H         1 DSP1        0.0000
     86 H18T       13.2060   10.9710    6.0790 H         1 DSP1        0.0000
     87 C33        12.2360   -0.7860    1.9800 C.3       1 DSP1        0.0000
     88 H3X        12.0350   -0.9880    0.9010 H         1 DSP1        0.0000
     89 H3Y        11.7590   -1.6100    2.5550 H         1 DSP1        0.0000
     90 C34        13.7620   -0.8050    2.1850 C.3       1 DSP1        0.0000
     91 H4X        14.0700    0.1410    2.6800 H         1 DSP1        0.0000
     92 H4Y        14.2640   -0.8080    1.1910 H         1 DSP1        0.0000
     93 C35        14.2890   -1.9910    3.0180 C.3       1 DSP1        0.0000
     94 H5X        14.8880   -2.6500    2.3490 H         1 DSP1        0.0000
     95 H5Y        13.4450   -2.6010    3.4060 H         1 DSP1        0.0000
     96 C36        15.1680   -1.5580    4.2040 C.3       1 DSP1        0.0000
     97 H6X        15.9400   -0.8510    3.8260 H         1 DSP1        0.0000
     98 H6Y        15.7000   -2.4420    4.6220 H         1 DSP1        0.0000
     99 C37        14.3680   -0.8850    5.3300 C.3       1 DSP1        0.0000
    100 H7X        13.8100   -1.6530    5.9080 H         1 DSP1        0.0000
    101 H7Y        13.6130   -0.2270    4.8550 H         1 DSP1        0.0000
    102 C38        15.2440   -0.0430    6.2720 C.3       1 DSP1        0.0000
    103 H8X        15.8960    0.6210    5.6680 H         1 DSP1        0.0000
    104 H8Y        15.9200   -0.7260    6.8340 H         1 DSP1        0.0000
    105 C39        14.4570    0.8190    7.2810 C.3       1 DSP1        0.0000
    106 H9X        15.1750    1.4560    7.8440 H         1 DSP1        0.0000
    107 H9Y        13.9870    0.1240    8.0150 H         1 DSP1        0.0000
    108 C310       13.3360    1.7170    6.7140 C.3       1 DSP1        0.0000
    109 H10X       12.7920    2.1370    7.5940 H         1 DSP1        0.0000
    110 H10Y       12.5960    1.1090    6.1530 H         1 DSP1        0.0000
    111 C311       13.7770    2.9200    5.8540 C.3       1 DSP1        0.0000
    112 H11X       14.5410    3.5150    6.3970 H         1 DSP1        0.0000
    113 H11Y       12.8800    3.5660    5.7320 H         1 DSP1        0.0000
    114 C312       14.2670    2.5720    4.4390 C.3       1 DSP1        0.0000
    115 H12X       13.6300    1.7480    4.0530 H         1 DSP1        0.0000
    116 H12Y       15.3120    2.2040    4.4750 H         1 DSP1        0.0000
    117 C313       14.1780    3.7190    3.4180 C.3       1 DSP1        0.0000
    118 H13X       13.1010    3.9480    3.2510 H         1 DSP1        0.0000
    119 H13Y       14.5880    3.3610    2.4460 H         1 DSP1        0.0000
    120 C314       14.8970    5.0240    3.8060 C.3       1 DSP1        0.0000
    121 H14X       14.4810    5.4270    4.7510 H         1 DSP1        0.0000
    122 H14Y       14.6520    5.7640    3.0080 H         1 DSP1        0.0000
    123 C315       16.4340    4.9280    3.8690 C.3       1 DSP1        0.0000
    124 H15X       16.8540    5.9200    3.5830 H         1 DSP1        0.0000
    125 H15Y       16.7800    4.1930    3.1100 H         1 DSP1        0.0000
    126 C316       17.0250    4.5690    5.2450 C.3       1 DSP1        0.0000
    127 H16X       18.1290    4.4690    5.1330 H         1 DSP1        0.0000
    128 H16Y       16.6410    3.5820    5.5780 H         1 DSP1        0.0000
    129 C317       16.7490    5.6150    6.3360 C.3       1 DSP1        0.0000
    130 H17X       15.6520    5.7020    6.5000 H         1 DSP1        0.0000
    131 H17Y       17.1120    6.6060    5.9790 H         1 DSP1        0.0000
    132 C318       17.4180    5.2840    7.6720 C.3       1 DSP1        0.0000
    133 H18X       18.5210    5.2220    7.5500 H         1 DSP1        0.0000
    134 H18Y       17.0520    4.3080    8.0570 H         1 DSP1        0.0000
    135 H18Z       17.1910    6.0680    8.4270 H         1 DSP1        0.0000
@<TRIPOS>BOND
     1   15   13 2 
     2   12   10 1 
     3    7    6 1 
     4    2    1 1 
     5   13   16 1 
     6   13   14 1 
     7   13   17 1 
     8    3    1 1 
     9    1    6 1 
    10    1    4 1 
    11   10    6 1 
    12   10   16 1 
    13   10   11 1 
    14    6    8 1 
    15   17   18 1 
    16   31   29 1 
    17   88   87 1 
    18    8    9 1 
    19    4    5 1 
    20   92   90 1 
    21   34   33 2 
    22   29   30 1 
    23   29   32 1 
    24   29   21 1 
    25   18   19 1 
    26   18   20 1 
    27   18   21 1 
    28   33   32 1 
    29   33   35 1 
    30   37   35 1 
    31   87   90 1 
    32   87   35 1 
    33   87   89 1 
    34   90   91 1 
    35   90   93 1 
    36   94   93 1 
    37   35   36 1 
    38   22   21 1 
    39  119  117 1 
    40   21   23 1 
    41  122  120 1 
    42   93   95 1 
    43   93   96 1 
    44  125  123 1 
    45  118  117 1 
    46  117  120 1 
    47  117  114 1 
    48  124  123 1 
    49   78   77 1 
    50  120  123 1 
    51  120  121 1 
    52   79   77 1 
    53   97   96 1 
    54  123  126 1 
    55   23   24 1 
    56   72   71 1 
    57  115  114 1 
    58   81   80 1 
    59   96   98 1 
    60   96   99 1 
    61   77   80 1 
    62   77   74 1 
    63   25   24 2 
    64  114  116 1 
    65  114  111 1 
    66   73   71 1 
    67   24   26 1 
    68  101   99 1 
    69   80   82 1 
    70   80   83 1 
    71   71   74 1 
    72   71   68 1 
    73   39   38 1 
    74  127  126 1 
    75   85   83 1 
    76  126  128 1 
    77  126  129 1 
    78   40   38 1 
    79   99  100 1 
    80   99  102 1 
    81   74   76 1 
    82   74   75 1 
    83   70   68 1 
    84  103  102 1 
    85  113  111 1 
    86   38   26 1 
    87   38   41 1 
    88   83   86 1 
    89   83   84 1 
    90   46   44 1 
    91  111  112 1 
    92  111  108 1 
    93   68   69 1 
    94   68   65 1 
    95   26   27 1 
    96   26   28 1 
    97  131  129 1 
    98  110  108 1 
    99  102  104 1 
   100  102  105 1 
   101  129  130 1 
   102  129  132 1 
   103   51   50 1 
   104   52   50 1 
   105  108  105 1 
   106  108  109 1 
   107   44   41 1 
   108   44   45 1 
   109   44   47 1 
   110   41   43 1 
   111   41   42 1 
   112   50   47 1 
   113   50   53 1 
   114  105  106 1 
   115  105  107 1 
   116   66   65 1 
   117   65   67 1 
   118   65   62 1 
   119   60   59 1 
   120  133  132 1 
   121  132  134 1 
   122  132  135 1 
   123   55   53 1 
   124   47   49 1 
   125   47   48 1 
   126   63   62 1 
   127   53   54 1 
   128   53   56 1 
   129   62   59 1 
   130   62   64 1 
   131   59   61 1 
   132   59   56 1 
   133   56   57 1 
   134   56   58 1 
