@<TRIPOS>MOLECULE
C:\Users\Praveer\PycharmProjects\pdb_to_mol2_converter\data\pdb\dsps.pdb
  135   134     0     0     0
SMALL
GASTEIGER

@<TRIPOS>ATOM
      1 N          -0.0360    0.0000   -0.0170 N.4       1 DSP1        0.0000
      2 HN1        -0.4130   -0.6690   -0.7030 H         1 DSP1        0.0000
      3 HN2        -0.3760    0.9860   -0.2110 H         1 DSP1        0.0000
      4 HN3        -0.2660   -0.2950    0.9640 H         1 DSP1        0.0000
      5 C12         1.4540   -0.0020    0.0030 C.3       1 DSP1        0.0000
      6 H12A        1.8200   -0.5340   -0.8630 H         1 DSP1        0.0000
      7 C13         1.9240   -0.7520    1.2650 C.2       1 DSP1        0.0000
      8 O13A        1.0450   -1.1770    2.0690 O.co2     1 DSP1        0.0000
      9 O13B        3.1570   -0.9200    1.4230 O.co2     1 DSP1        0.0000
     10 C11         1.9940    1.4600   -0.0090 C.3       1 DSP1        0.0000
     11 H11A        3.1040    1.4070    0.0810 H         1 DSP1        0.0000
     12 H11B        1.6310    2.0110    0.8910 H         1 DSP1        0.0000
     13 P           0.4480    3.1170   -1.3650 P.3       1 DSP1        0.0000
     14 O13         0.8470    4.4700   -0.9380 O.2       1 DSP1        0.0000
     15 O14        -0.6890    2.4600   -0.6780 O.3       1 DSP1        0.0000
     16 O12         1.6770    2.1270   -1.2370 O.3       1 DSP1        0.0000
     17 O11         0.1850    3.0890   -2.9250 O.3       1 DSP1        0.0000
     18 C1          1.2870    3.2950   -3.8090 C.3       1 DSP1        0.0000
     19 HA          2.0990    2.5480   -3.6360 H         1 DSP1        0.0000
     20 HB          1.7150    4.3170   -3.6740 H         1 DSP1        0.0000
     21 C2          0.8240    3.1530   -5.2760 C.3       1 DSP1        0.0000
     22 HS          0.4630    2.1040   -5.4070 H         1 DSP1        0.0000
     23 O21         1.9740    3.4410   -6.0930 O.3       1 DSP1        0.0000
     24 C21         2.0290    2.8230   -7.2560 C.2       1 DSP1        0.0000
     25 O22         1.1730    2.1020   -7.7340 O.2       1 DSP1        0.0000
     26 C22         3.4010    3.0580   -7.8970 C.3       1 DSP1        0.0000
     27 H2R         3.3090    2.8260   -8.9770 H         1 DSP1        0.0000
     28 H2S         4.0930    2.3190   -7.4420 H         1 DSP1        0.0000
     29 C3         -0.3590    4.1220   -5.5790 C.3       1 DSP1        0.0000
     30 HX          0.0230    5.1570   -5.4360 H         1 DSP1        0.0000
     31 HY         -1.1590    3.9700   -4.8180 H         1 DSP1        0.0000
     32 O31        -0.8610    3.9920   -6.9270 O.3       1 DSP1        0.0000
     33 C31        -1.6990    2.9730   -7.1130 C.2       1 DSP1        0.0000
     34 O32        -2.1420    2.2450   -6.2440 O.2       1 DSP1        0.0000
     35 C32        -2.0220    2.8700   -8.6020 C.3       1 DSP1        0.0000
     36 H2X        -1.0830    2.5780   -9.1180 H         1 DSP1        0.0000
     37 H2Y        -2.3280    3.8730   -8.9610 H         1 DSP1        0.0000
     38 C23         3.9870    4.4800   -7.7110 C.3       1 DSP1        0.0000
     39 H3R         3.9420    4.7860   -6.6410 H         1 DSP1        0.0000
     40 H3S         3.3760    5.2040   -8.2900 H         1 DSP1        0.0000
     41 C24         5.4610    4.5240   -8.1520 C.3       1 DSP1        0.0000
     42 H4R         5.5590    4.0890   -9.1710 H         1 DSP1        0.0000
     43 H4S         6.0320    3.8650   -7.4570 H         1 DSP1        0.0000
     44 C25         6.1150    5.9190   -8.1360 C.3       1 DSP1        0.0000
     45 H5R         7.1470    5.8020   -7.7300 H         1 DSP1        0.0000
     46 H5S         5.5650    6.6000   -7.4510 H         1 DSP1        0.0000
     47 C26         6.2480    6.5480   -9.5340 C.3       1 DSP1        0.0000
     48 H6R         6.6470    5.7800  -10.2320 H         1 DSP1        0.0000
     49 H6S         6.9850    7.3820   -9.5000 H         1 DSP1        0.0000
     50 C27         4.9210    7.1020  -10.0630 C.3       1 DSP1        0.0000
     51 H7R         4.6820    8.0360   -9.5050 H         1 DSP1        0.0000
     52 H7S         4.1180    6.3770   -9.8310 H         1 DSP1        0.0000
     53 C28         4.9010    7.3940  -11.5740 C.3       1 DSP1        0.0000
     54 H8R         5.7300    8.0940  -11.8200 H         1 DSP1        0.0000
     55 H8S         3.9500    7.9270  -11.8040 H         1 DSP1        0.0000
     56 C29         4.9910    6.1550  -12.4960 C.3       1 DSP1        0.0000
     57 H9R         6.0220    5.7430  -12.4470 H         1 DSP1        0.0000
     58 H9S         4.8210    6.5040  -13.5400 H         1 DSP1        0.0000
     59 C210        3.9990    5.0090  -12.2030 C.3       1 DSP1        0.0000
     60 H10R        4.3410    4.4630  -11.2940 H         1 DSP1        0.0000
     61 H10S        4.0110    4.2890  -13.0530 H         1 DSP1        0.0000
     62 C211        2.5570    5.4800  -11.9790 C.3       1 DSP1        0.0000
     63 H11R        2.1430    5.9100  -12.9170 H         1 DSP1        0.0000
     64 H11S        2.5680    6.2880  -11.2220 H         1 DSP1        0.0000
     65 C212        1.6150    4.3970  -11.4470 C.3       1 DSP1        0.0000
     66 H12R        2.0170    3.9930  -10.4910 H         1 DSP1        0.0000
     67 H12S        1.5730    3.5540  -12.1730 H         1 DSP1        0.0000
     68 C213        0.2030    4.9490  -11.1970 C.3       1 DSP1        0.0000
     69 H13R       -0.4440    4.0930  -10.8990 H         1 DSP1        0.0000
     70 H13S       -0.2130    5.3480  -12.1460 H         1 DSP1        0.0000
     71 C214        0.1360    6.0120  -10.0780 C.3       1 DSP1        0.0000
     72 H14R        0.9570    5.8210   -9.3520 H         1 DSP1        0.0000
     73 H14S       -0.8230    5.8700   -9.5290 H         1 DSP1        0.0000
     74 C215        0.1810    7.4920  -10.5220 C.3       1 DSP1        0.0000
     75 H15R        1.1190    7.7220  -11.0680 H         1 DSP1        0.0000
     76 H15S        0.1760    8.1250   -9.6060 H         1 DSP1        0.0000
     77 C216       -1.0110    7.8960  -11.3990 C.3       1 DSP1        0.0000
     78 H16R       -1.9510    7.6110  -10.8770 H         1 DSP1        0.0000
     79 H16S       -0.9680    7.3310  -12.3570 H         1 DSP1        0.0000
     80 C217       -1.0690    9.3920  -11.7330 C.3       1 DSP1        0.0000
     81 H17R       -0.1060    9.7050  -12.1960 H         1 DSP1        0.0000
     82 H17S       -1.1930    9.9750  -10.7920 H         1 DSP1        0.0000
     83 C218       -2.2190    9.7140  -12.6900 C.3       1 DSP1        0.0000
     84 H18R       -3.1940    9.4890  -12.2050 H         1 DSP1        0.0000
     85 H18S       -2.1380    9.0930  -13.6090 H         1 DSP1        0.0000
     86 H18T       -2.2080   10.7850  -12.9850 H         1 DSP1        0.0000
     87 C33        -3.1250    1.8340   -8.9170 C.3       1 DSP1        0.0000
     88 H3X        -4.0740    2.1290   -8.4140 H         1 DSP1        0.0000
     89 H3Y        -2.8300    0.8330   -8.5260 H         1 DSP1        0.0000
     90 C34        -3.3600    1.7340  -10.4280 C.3       1 DSP1        0.0000
     91 H4X        -2.4110    1.4150  -10.9130 H         1 DSP1        0.0000
     92 H4Y        -3.6080    2.7500  -10.8070 H         1 DSP1        0.0000
     93 C35        -4.4910    0.7770  -10.8340 C.3       1 DSP1        0.0000
     94 H5X        -5.4180    1.0890  -10.3030 H         1 DSP1        0.0000
     95 H5Y        -4.2470   -0.2580  -10.5110 H         1 DSP1        0.0000
     96 C36        -4.7660    0.7980  -12.3490 C.3       1 DSP1        0.0000
     97 H6X        -4.8860    1.8560  -12.6690 H         1 DSP1        0.0000
     98 H6Y        -5.7290    0.2770  -12.5520 H         1 DSP1        0.0000
     99 C37        -3.6670    0.1230  -13.1880 C.3       1 DSP1        0.0000
    100 H7X        -3.6690   -0.9650  -12.9470 H         1 DSP1        0.0000
    101 H7Y        -2.6680    0.5130  -12.9030 H         1 DSP1        0.0000
    102 C38        -3.8500    0.2920  -14.7070 C.3       1 DSP1        0.0000
    103 H8X        -4.8580   -0.0890  -14.9860 H         1 DSP1        0.0000
    104 H8Y        -3.0980   -0.3480  -15.2230 H         1 DSP1        0.0000
    105 C39        -3.6990    1.7320  -15.2430 C.3       1 DSP1        0.0000
    106 H9X        -4.4830    2.3880  -14.8110 H         1 DSP1        0.0000
    107 H9Y        -3.8850    1.6870  -16.3420 H         1 DSP1        0.0000
    108 C310       -2.3050    2.3590  -15.0330 C.3       1 DSP1        0.0000
    109 H10X       -2.0570    2.9940  -15.9140 H         1 DSP1        0.0000
    110 H10Y       -1.5510    1.5430  -14.9890 H         1 DSP1        0.0000
    111 C311       -2.1910    3.2420  -13.7780 C.3       1 DSP1        0.0000
    112 H11X       -1.1190    3.4430  -13.5570 H         1 DSP1        0.0000
    113 H11Y       -2.6010    2.6790  -12.9150 H         1 DSP1        0.0000
    114 C312       -2.9330    4.5830  -13.8940 C.3       1 DSP1        0.0000
    115 H12X       -3.6720    4.5170  -14.7240 H         1 DSP1        0.0000
    116 H12Y       -2.2090    5.3850  -14.1560 H         1 DSP1        0.0000
    117 C313       -3.6840    4.9560  -12.6070 C.3       1 DSP1        0.0000
    118 H13X       -2.9700    4.9270  -11.7530 H         1 DSP1        0.0000
    119 H13Y       -4.4630    4.1820  -12.4220 H         1 DSP1        0.0000
    120 C314       -4.3650    6.3350  -12.6340 C.3       1 DSP1        0.0000
    121 H14X       -3.5930    7.1340  -12.6640 H         1 DSP1        0.0000
    122 H14Y       -4.9220    6.4480  -11.6750 H         1 DSP1        0.0000
    123 C315       -5.3530    6.5380  -13.7950 C.3       1 DSP1        0.0000
    124 H15X       -6.2110    7.1480  -13.4290 H         1 DSP1        0.0000
    125 H15Y       -5.7580    5.5520  -14.1090 H         1 DSP1        0.0000
    126 C316       -4.7370    7.2840  -14.9910 C.3       1 DSP1        0.0000
    127 H16X       -3.8410    6.7370  -15.3550 H         1 DSP1        0.0000
    128 H16Y       -4.3960    8.2840  -14.6390 H         1 DSP1        0.0000
    129 C317       -5.7040    7.4820  -16.1690 C.3       1 DSP1        0.0000
    130 H17X       -5.2070    8.1430  -16.9170 H         1 DSP1        0.0000
    131 H17Y       -6.6120    8.0160  -15.8070 H         1 DSP1        0.0000
    132 C318       -6.1210    6.1840  -16.8670 C.3       1 DSP1        0.0000
    133 H18X       -6.7160    5.5410  -16.1840 H         1 DSP1        0.0000
    134 H18Y       -5.2240    5.6140  -17.1930 H         1 DSP1        0.0000
    135 H18Z       -6.7400    6.4060  -17.7630 H         1 DSP1        0.0000
@<TRIPOS>BOND
     1  135  132 1 
     2  134  132 1 
     3  130  129 1 
     4  132  133 1 
     5  132  129 1 
     6  107  105 1 
     7  129  131 1 
     8  129  126 1 
     9  109  108 1 
    10  127  126 1 
    11  105  108 1 
    12  105  106 1 
    13  105  102 1 
    14  104  102 1 
    15  108  110 1 
    16  108  111 1 
    17  126  128 1 
    18  126  123 1 
    19  103  102 1 
    20  115  114 1 
    21  102   99 1 
    22  116  114 1 
    23  125  123 1 
    24  114  111 1 
    25  114  117 1 
    26  123  124 1 
    27  123  120 1 
    28  111  112 1 
    29  111  113 1 
    30   85   83 1 
    31   58   56 1 
    32   99  100 1 
    33   99  101 1 
    34   99   96 1 
    35   61   59 1 
    36   86   83 1 
    37   63   62 1 
    38   83   84 1 
    39   83   80 1 
    40   97   96 1 
    41  121  120 1 
    42  120  117 1 
    43  120  122 1 
    44  117  119 1 
    45  117  118 1 
    46   98   96 1 
    47   56   57 1 
    48   56   59 1 
    49   56   53 1 
    50   79   77 1 
    51   96   93 1 
    52   59   62 1 
    53   59   60 1 
    54   81   80 1 
    55   67   65 1 
    56   70   68 1 
    57   62   65 1 
    58   62   64 1 
    59   54   53 1 
    60   55   53 1 
    61   80   77 1 
    62   80   82 1 
    63   53   50 1 
    64   65   68 1 
    65   65   66 1 
    66   77   78 1 
    67   77   74 1 
    68   68   69 1 
    69   68   71 1 
    70   75   74 1 
    71   91   90 1 
    72   93   95 1 
    73   93   90 1 
    74   93   94 1 
    75   92   90 1 
    76   74   71 1 
    77   74   76 1 
    78   90   87 1 
    79   48   47 1 
    80   71   73 1 
    81   71   72 1 
    82   50   52 1 
    83   50   47 1 
    84   50   51 1 
    85   47   49 1 
    86   47   44 1 
    87   42   41 1 
    88   36   35 1 
    89   27   26 1 
    90   37   35 1 
    91   87   35 1 
    92   87   89 1 
    93   87   88 1 
    94   35   33 1 
    95   40   38 1 
    96   41   44 1 
    97   41   38 1 
    98   41   43 1 
    99   44   45 1 
   100   44   46 1 
   101   26   38 1 
   102   26   28 1 
   103   26   24 1 
   104   25   24 2 
   105   38   39 1 
   106   24   23 1 
   107   33   32 1 
   108   33   34 2 
   109   32   29 1 
   110   23   21 1 
   111   29   30 1 
   112   29   21 1 
   113   29   31 1 
   114   22   21 1 
   115   21   18 1 
   116   18   20 1 
   117   18   19 1 
   118   18   17 1 
   119   17   13 1 
   120   13   16 1 
   121   13   14 2 
   122   13   15 1 
   123   16   10 1 
   124    6    5 1 
   125    2    1 1 
   126    3    1 1 
   127    1    5 1 
   128    1    4 1 
   129   10    5 1 
   130   10   11 1 
   131   10   12 1 
   132    5    7 1 
   133    7    9 ar
   134    7    8 ar
