@<TRIPOS>MOLECULE
C:\Users\Praveer\PycharmProjects\pdb_to_mol2_converter\data\pdb\dthrol.pdb
   18    17     0     0     0
SMALL
GASTEIGER

@<TRIPOS>ATOM
      1 C1          0.0640    0.0710   -0.0330 C.3       1 DTH1        0.0000
      2 H11        -0.3090    0.3930   -1.0320 H         1 DTH1        0.0000
      3 H12        -0.2960   -0.9690    0.1430 H         1 DTH1        0.0000
      4 O1         -0.4770    0.9170    0.9840 O.3       1 DTH1        0.0000
      5 HO1        -0.6070    1.7840    0.5830 H         1 DTH1        0.0000
      6 C2          1.5770    0.0990    0.0300 C.3       1 DTH1        0.0000
      7 H2          1.8870   -0.3150    1.0200 H         1 DTH1        0.0000
      8 O2          2.0700   -0.7610   -1.0090 O.3       1 DTH1        0.0000
      9 HO2         2.7190   -1.3400   -0.5890 H         1 DTH1        0.0000
     10 C3          2.1630    1.5020   -0.1190 C.3       1 DTH1        0.0000
     11 H3          1.7700    2.1590    0.6920 H         1 DTH1        0.0000
     12 O3          1.7720    2.0580   -1.3790 O.3       1 DTH1        0.0000
     13 HO3         1.7480    1.2880   -1.9630 H         1 DTH1        0.0000
     14 C4          3.6730    1.5210   -0.0560 C.3       1 DTH1        0.0000
     15 H41         4.0540    2.5580   -0.2030 H         1 DTH1        0.0000
     16 H42         4.1060    0.8820   -0.8590 H         1 DTH1        0.0000
     17 O4          4.1000    1.0290    1.2190 O.3       1 DTH1        0.0000
     18 HO4         4.4140    1.7800    1.7340 H         1 DTH1        0.0000
@<TRIPOS>BOND
     1   13   12 1 
     2   12   10 1 
     3    2    1 1 
     4    8    9 1 
     5    8    6 1 
     6   16   14 1 
     7   15   14 1 
     8   10   14 1 
     9   10    6 1 
    10   10   11 1 
    11   14   17 1 
    12    1    6 1 
    13    1    3 1 
    14    1    4 1 
    15    6    7 1 
    16    5    4 1 
    17   17   18 1 
