@<TRIPOS>MOLECULE
C:\Users\Praveer\PycharmProjects\pdb_to_mol2_converter\data\pdb\dtpa.pdb
  100    99     0     0     0
SMALL
GASTEIGER

@<TRIPOS>ATOM
      1 P           1.5750    0.0510   -0.0300 P.3       1 DTP1        0.0000
      2 O13         2.1190   -0.4800    1.2330 O.3       1 DTP1        0.0000
      3 O14         2.1240   -0.4600   -1.2950 O.2       1 DTP1        0.0000
      4 O12         2.0100    1.5570   -0.0140 O.3       1 DTP1        0.0000
      5 H12         2.9700    1.5500   -0.0000 H         1 DTP1        0.0000
      6 O11        -0.0060    0.0210   -0.0370 O.3       1 DTP1        0.0000
      7 C1         -0.6380   -1.2660   -0.0500 C.3       1 DTP1        0.0000
      8 HA         -0.3230   -1.8750    0.8300 H         1 DTP1        0.0000
      9 HB         -0.3720   -1.8180   -0.9820 H         1 DTP1        0.0000
     10 C2         -2.1830   -1.1310    0.0050 C.3       1 DTP1        0.0000
     11 HS         -2.4800   -0.4950   -0.8620 H         1 DTP1        0.0000
     12 O21        -2.5330   -0.5050    1.2530 O.3       1 DTP1        0.0000
     13 C21        -3.7350    0.0280    1.2990 C.2       1 DTP1        0.0000
     14 O22        -4.5760   -0.0140    0.4200 O.2       1 DTP1        0.0000
     15 C22        -3.9110    0.7240    2.6500 C.3       1 DTP1        0.0000
     16 H2R        -3.5850    1.7770    2.5280 H         1 DTP1        0.0000
     17 H2S        -3.2440    0.2330    3.3900 H         1 DTP1        0.0000
     18 C3         -2.8750   -2.5180   -0.1210 C.3       1 DTP1        0.0000
     19 HX         -3.9790   -2.3850   -0.1500 H         1 DTP1        0.0000
     20 HY         -2.6080   -3.0800    0.8060 H         1 DTP1        0.0000
     21 O31        -2.4300   -3.2030   -1.3120 O.3       1 DTP1        0.0000
     22 C31        -2.6510   -4.5120   -1.3030 C.2       1 DTP1        0.0000
     23 O32        -3.2000   -5.1310   -0.4110 O.2       1 DTP1        0.0000
     24 C32        -2.1010   -5.1320   -2.5860 C.3       1 DTP1        0.0000
     25 H2X        -2.0720   -6.2320   -2.4470 H         1 DTP1        0.0000
     26 H2Y        -1.0630   -4.7630   -2.7230 H         1 DTP1        0.0000
     27 C23        -5.3700    0.6700    3.1520 C.3       1 DTP1        0.0000
     28 H3R        -5.6970   -0.3930    3.2080 H         1 DTP1        0.0000
     29 H3S        -6.0380    1.1970    2.4330 H         1 DTP1        0.0000
     30 C24        -5.5110    1.3130    4.5380 C.3       1 DTP1        0.0000
     31 H4R        -5.1160    2.3540    4.4750 H         1 DTP1        0.0000
     32 H4S        -4.8710    0.7590    5.2610 H         1 DTP1        0.0000
     33 C25        -6.9490    1.3800    5.0840 C.3       1 DTP1        0.0000
     34 H5R        -7.5870    1.9800    4.3990 H         1 DTP1        0.0000
     35 H5S        -6.8950    1.9370    6.0500 H         1 DTP1        0.0000
     36 C26        -7.6080    0.0160    5.3870 C.3       1 DTP1        0.0000
     37 H6R        -8.4010    0.2000    6.1480 H         1 DTP1        0.0000
     38 H6S        -6.8470   -0.6440    5.8660 H         1 DTP1        0.0000
     39 C27        -8.2410   -0.6630    4.1970 C.2       1 DTP1        0.0000
     40 H7R        -8.3040   -0.0630    3.2740 H         1 DTP1        0.0000
     41 C28        -8.7000   -1.9280    4.2050 C.2       1 DTP1        0.0000
     42 H8R        -9.1440   -2.3470    3.2860 H         1 DTP1        0.0000
     43 C29        -8.6560   -2.8260    5.4180 C.3       1 DTP1        0.0000
     44 H9R        -9.0900   -2.2820    6.2880 H         1 DTP1        0.0000
     45 H9S        -7.5890   -3.0110    5.6800 H         1 DTP1        0.0000
     46 C210       -9.3630   -4.1540    5.2830 C.2       1 DTP1        0.0000
     47 H10R       -9.9280   -4.3300    4.3540 H         1 DTP1        0.0000
     48 C211       -9.3380   -5.1090    6.2320 C.2       1 DTP1        0.0000
     49 H11R       -9.8790   -6.0540    6.0620 H         1 DTP1        0.0000
     50 C212       -8.6020   -4.9660    7.5430 C.3       1 DTP1        0.0000
     51 H12R       -8.9890   -4.0670    8.0760 H         1 DTP1        0.0000
     52 H12S       -7.5290   -4.7510    7.3330 H         1 DTP1        0.0000
     53 C213       -8.6840   -6.1530    8.4730 C.2       1 DTP1        0.0000
     54 H13R       -9.2650   -7.0220    8.1250 H         1 DTP1        0.0000
     55 C214       -8.0940   -6.1980    9.6800 C.2       1 DTP1        0.0000
     56 H14R       -8.1960   -7.0980   10.3060 H         1 DTP1        0.0000
     57 C215       -7.2750   -5.0780   10.2680 C.3       1 DTP1        0.0000
     58 H15R       -7.8920   -4.1540   10.3540 H         1 DTP1        0.0000
     59 H15S       -6.4190   -4.8340    9.5990 H         1 DTP1        0.0000
     60 C216       -6.7280   -5.4360   11.6570 C.3       1 DTP1        0.0000
     61 H16R       -6.0700   -6.3300   11.6050 H         1 DTP1        0.0000
     62 H16S       -7.5570   -5.6440   12.3680 H         1 DTP1        0.0000
     63 H16T       -6.1300   -4.5900   12.0620 H         1 DTP1        0.0000
     64 C33        -2.9560   -4.7700   -3.8220 C.3       1 DTP1        0.0000
     65 H3X        -2.4520   -5.1760   -4.7290 H         1 DTP1        0.0000
     66 H3Y        -3.0090   -3.6630   -3.9390 H         1 DTP1        0.0000
     67 C34        -4.3750   -5.3510   -3.7580 C.3       1 DTP1        0.0000
     68 H4X        -4.9210   -4.9050   -2.8960 H         1 DTP1        0.0000
     69 H4Y        -4.3160   -6.4500   -3.5840 H         1 DTP1        0.0000
     70 C35        -5.1820   -5.0930   -5.0390 C.3       1 DTP1        0.0000
     71 H5X        -4.6560   -5.5720   -5.8960 H         1 DTP1        0.0000
     72 H5Y        -5.2160   -3.9950   -5.2260 H         1 DTP1        0.0000
     73 C36        -6.6150   -5.6460   -4.9310 C.3       1 DTP1        0.0000
     74 H6X        -7.1000   -5.1640   -4.0510 H         1 DTP1        0.0000
     75 H6Y        -6.5460   -6.7350   -4.7090 H         1 DTP1        0.0000
     76 C37        -7.4420   -5.4270   -6.1730 C.2       1 DTP1        0.0000
     77 H7X        -6.9070   -5.0300   -7.0510 H         1 DTP1        0.0000
     78 C38        -8.7610   -5.6810   -6.2500 C.2       1 DTP1        0.0000
     79 H8X        -9.2940   -5.4960   -7.1970 H         1 DTP1        0.0000
     80 C39        -9.5730   -6.2270   -5.0990 C.3       1 DTP1        0.0000
     81 H9X        -9.5060   -5.5140   -4.2460 H         1 DTP1        0.0000
     82 H9Y        -9.0960   -7.1680   -4.7400 H         1 DTP1        0.0000
     83 C310      -11.0300   -6.5030   -5.3820 C.2       1 DTP1        0.0000
     84 H10X      -11.3960   -6.2790   -6.3970 H         1 DTP1        0.0000
     85 C311      -11.8820   -7.0000   -4.4650 C.2       1 DTP1        0.0000
     86 H11X      -12.9330   -7.1750   -4.7430 H         1 DTP1        0.0000
     87 C312      -11.4800   -7.3400   -3.0480 C.3       1 DTP1        0.0000
     88 H12X      -11.0520   -6.4310   -2.5670 H         1 DTP1        0.0000
     89 H12Y      -10.6500   -8.0820   -3.0780 H         1 DTP1        0.0000
     90 C313      -12.5830   -7.8810   -2.1700 C.2       1 DTP1        0.0000
     91 H13X      -13.5800   -7.9820   -2.6270 H         1 DTP1        0.0000
     92 C314      -12.4110   -8.2370   -0.8840 C.2       1 DTP1        0.0000
     93 H14X      -13.2660   -8.6250   -0.3080 H         1 DTP1        0.0000
     94 C315      -11.1040   -8.1500   -0.1400 C.3       1 DTP1        0.0000
     95 H15X      -10.7320   -7.1000   -0.1360 H         1 DTP1        0.0000
     96 H15Y      -10.3280   -8.7640   -0.6520 H         1 DTP1        0.0000
     97 C316      -11.2360   -8.6320    1.3110 C.3       1 DTP1        0.0000
     98 H16X      -11.5620   -9.6940    1.3480 H         1 DTP1        0.0000
     99 H16Y      -11.9720   -8.0140    1.8700 H         1 DTP1        0.0000
    100 H16Z      -10.2550   -8.5540    1.8300 H         1 DTP1        0.0000
@<TRIPOS>BOND
     1   79   78 1 
     2   77   76 1 
     3   84   83 1 
     4   78   76 2 
     5   78   80 1 
     6   76   73 1 
     7   71   70 1 
     8   83   80 1 
     9   83   85 2 
    10   72   70 1 
    11   80   82 1 
    12   80   81 1 
    13   70   73 1 
    14   70   67 1 
    15   73   75 1 
    16   73   74 1 
    17   86   85 1 
    18   65   64 1 
    19   85   87 1 
    20   66   64 1 
    21   64   67 1 
    22   64   24 1 
    23   67   69 1 
    24   67   68 1 
    25   89   87 1 
    26   87   88 1 
    27   87   90 1 
    28   26   24 1 
    29   91   90 1 
    30   24   25 1 
    31   24   22 1 
    32   90   92 2 
    33   21   22 1 
    34   21   18 1 
    35   22   23 2 
    36    3    1 2 
    37    9    7 1 
    38   92   93 1 
    39   92   94 1 
    40   11   10 1 
    41   96   94 1 
    42   19   18 1 
    43   94   95 1 
    44   94   97 1 
    45   18   10 1 
    46   18   20 1 
    47    7    6 1 
    48    7   10 1 
    49    7    8 1 
    50    6    1 1 
    51    1    4 1 
    52    1    2 1 
    53    4    5 1 
    54   10   12 1 
    55   14   13 2 
    56   12   13 1 
    57   13   15 1 
    58   97   98 1 
    59   97  100 1 
    60   97   99 1 
    61   29   27 1 
    62   16   15 1 
    63   15   27 1 
    64   15   17 1 
    65   27   28 1 
    66   27   30 1 
    67   40   39 1 
    68   42   41 1 
    69   39   41 2 
    70   39   36 1 
    71   41   43 1 
    72   47   46 1 
    73   34   33 1 
    74   31   30 1 
    75   30   33 1 
    76   30   32 1 
    77   33   36 1 
    78   33   35 1 
    79   46   43 1 
    80   46   48 2 
    81   36   38 1 
    82   36   37 1 
    83   43   45 1 
    84   43   44 1 
    85   49   48 1 
    86   48   50 1 
    87   52   50 1 
    88   50   51 1 
    89   50   53 1 
    90   54   53 1 
    91   53   55 2 
    92   59   57 1 
    93   55   57 1 
    94   55   56 1 
    95   57   58 1 
    96   57   60 1 
    97   61   60 1 
    98   60   63 1 
    99   60   62 1 
