@<TRIPOS>MOLECULE
C:\Users\Praveer\PycharmProjects\pdb_to_mol2_converter\data\pdb\dupc.pdb
  134   133     0     0     0
SMALL
GASTEIGER

@<TRIPOS>ATOM
      1 N           1.5110   -0.0050   -0.0060 N.4       1 DUP1        0.0000
      2 C12         1.9760    1.4440   -0.0070 C.3       1 DUP1        0.0000
      3 H12A        3.0430    1.5200    0.1310 H         1 DUP1        0.0000
      4 H12B        1.5200    1.9500    0.8520 H         1 DUP1        0.0000
      5 C13         2.0080   -0.7200   -1.2230 C.3       1 DUP1        0.0000
      6 H13A        3.0890   -0.7260   -1.2590 H         1 DUP1        0.0000
      7 H13B        1.6470   -0.2150   -2.1130 H         1 DUP1        0.0000
      8 H13C        1.6480   -1.7390   -1.2480 H         1 DUP1        0.0000
      9 C14         1.9880   -0.6880    1.2390 C.3       1 DUP1        0.0000
     10 H14A        1.6140   -0.1620    2.1140 H         1 DUP1        0.0000
     11 H14B        3.0680   -0.7050    1.2910 H         1 DUP1        0.0000
     12 H14C        1.6210   -1.7050    1.2840 H         1 DUP1        0.0000
     13 C15         0.0080   -0.0150    0.0050 C.3       1 DUP1        0.0000
     14 H15A       -0.3930    0.5550   -0.8390 H         1 DUP1        0.0000
     15 H15B       -0.3670    0.5400    0.8680 H         1 DUP1        0.0000
     16 H15C       -0.4130   -1.0040   -0.0010 H         1 DUP1        0.0000
     17 C11         1.5700    2.3010   -1.2230 C.3       1 DUP1        0.0000
     18 H11A        0.8990    1.7640   -1.9310 H         1 DUP1        0.0000
     19 H11B        2.4830    2.5730   -1.7980 H         1 DUP1        0.0000
     20 P          -0.4630    3.3740   -0.0420 P.3       1 DUP1        0.0000
     21 O13        -1.3440    2.5540   -0.9020 O.2       1 DUP1        0.0000
     22 O14        -0.2200    2.8430    1.3210 O.3       1 DUP1        0.0000
     23 O12         0.9530    3.4930   -0.7500 O.3       1 DUP1        0.0000
     24 O11        -0.9840    4.8650    0.0240 O.3       1 DUP1        0.0000
     25 C1         -2.3530    5.0850    0.3780 C.3       1 DUP1        0.0000
     26 HA         -2.6390    4.5020    1.2870 H         1 DUP1        0.0000
     27 HB         -3.0170    4.7830   -0.4650 H         1 DUP1        0.0000
     28 C2         -2.6080    6.5810    0.6970 C.3       1 DUP1        0.0000
     29 HS         -2.3140    7.1570   -0.2140 H         1 DUP1        0.0000
     30 O21        -1.8140    6.9360    1.8460 O.3       1 DUP1        0.0000
     31 C21        -1.3750    8.1790    1.8660 C.2       1 DUP1        0.0000
     32 O22        -1.5780    9.0330    1.0210 O.2       1 DUP1        0.0000
     33 C22        -0.5810    8.3970    3.1550 C.3       1 DUP1        0.0000
     34 H2R         0.2750    7.6910    3.1530 H         1 DUP1        0.0000
     35 H2S        -1.2460    8.1490    4.0070 H         1 DUP1        0.0000
     36 C3         -4.1160    6.8360    0.9880 C.3       1 DUP1        0.0000
     37 HX         -4.3950    6.1740    1.8390 H         1 DUP1        0.0000
     38 HY         -4.7230    6.5070    0.1130 H         1 DUP1        0.0000
     39 O31        -4.3850    8.2010    1.3720 O.3       1 DUP1        0.0000
     40 C31        -4.6030    9.0400    0.3600 C.2       1 DUP1        0.0000
     41 O32        -4.7220    8.7250   -0.8090 O.2       1 DUP1        0.0000
     42 C32        -4.7050   10.4600    0.9190 C.3       1 DUP1        0.0000
     43 H2X        -3.6820   10.7690    1.2230 H         1 DUP1        0.0000
     44 H2Y        -5.3500   10.4320    1.8200 H         1 DUP1        0.0000
     45 C23        -0.0740    9.8510    3.2860 C.3       1 DUP1        0.0000
     46 H3R        -0.9350   10.5550    3.2030 H         1 DUP1        0.0000
     47 H3S         0.6260   10.0790    2.4500 H         1 DUP1        0.0000
     48 C24         0.6370   10.1090    4.6200 C.3       1 DUP1        0.0000
     49 H4R         1.5040    9.4180    4.7160 H         1 DUP1        0.0000
     50 H4S        -0.0660    9.8880    5.4550 H         1 DUP1        0.0000
     51 C25         1.1290   11.5580    4.7490 C.3       1 DUP1        0.0000
     52 H5R         0.2660   12.2470    4.6050 H         1 DUP1        0.0000
     53 H5S         1.8670   11.7660    3.9430 H         1 DUP1        0.0000
     54 C26         1.7730   11.8490    6.1110 C.3       1 DUP1        0.0000
     55 H6R         2.6350   11.1620    6.2660 H         1 DUP1        0.0000
     56 H6S         1.0290   11.6440    6.9140 H         1 DUP1        0.0000
     57 C27         2.2560   13.3010    6.2380 C.3       1 DUP1        0.0000
     58 H7R         1.3990   13.9800    6.0290 H         1 DUP1        0.0000
     59 H7S         3.0350   13.4880    5.4650 H         1 DUP1        0.0000
     60 C28         2.8290   13.6040    7.6340 C.3       1 DUP1        0.0000
     61 H8R         3.6650   12.8910    7.8170 H         1 DUP1        0.0000
     62 H8S         2.0430   13.3830    8.3900 H         1 DUP1        0.0000
     63 C29         3.2710   15.0420    7.7640 C.2       1 DUP1        0.0000
     64 H9R         2.5240   15.7870    7.4470 H         1 DUP1        0.0000
     65 C210        4.4720   15.4700    8.2000 C.2       1 DUP1        0.0000
     66 H10R        4.6660   16.5540    8.2400 H         1 DUP1        0.0000
     67 C211        5.6140   14.6040    8.6760 C.3       1 DUP1        0.0000
     68 H11R        5.2210   13.6740    9.1440 H         1 DUP1        0.0000
     69 H11S        6.1550   15.1330    9.4920 H         1 DUP1        0.0000
     70 C212        6.5780   14.2330    7.5770 C.2       1 DUP1        0.0000
     71 H12R        6.3310   14.5730    6.5580 H         1 DUP1        0.0000
     72 C213        7.6960   13.5150    7.7730 C.2       1 DUP1        0.0000
     73 H13R        7.9430   13.1610    8.7860 H         1 DUP1        0.0000
     74 C214        8.6560   13.1420    6.6740 C.3       1 DUP1        0.0000
     75 H14R        9.0870   14.0600    6.2150 H         1 DUP1        0.0000
     76 H14S        8.1260   12.5890    5.8670 H         1 DUP1        0.0000
     77 C215        9.8180   12.2670    7.1790 C.3       1 DUP1        0.0000
     78 H15R        9.4140   11.3240    7.6120 H         1 DUP1        0.0000
     79 H15S       10.3700   12.8050    7.9830 H         1 DUP1        0.0000
     80 C216       10.8110   11.9080    6.0630 C.3       1 DUP1        0.0000
     81 H16R       11.2230   12.8460    5.6260 H         1 DUP1        0.0000
     82 H16S       10.2720   11.3660    5.2540 H         1 DUP1        0.0000
     83 C217       11.9700   11.0380    6.5660 C.3       1 DUP1        0.0000
     84 H17R       11.5500   10.1050    7.0060 H         1 DUP1        0.0000
     85 H17S       12.4970   11.5830    7.3830 H         1 DUP1        0.0000
     86 C218       12.9790   10.6700    5.4760 C.3       1 DUP1        0.0000
     87 H18R       13.4330   11.5870    5.0400 H         1 DUP1        0.0000
     88 H18S       12.4820   10.1030    4.6600 H         1 DUP1        0.0000
     89 H18T       13.7940   10.0410    5.8950 H         1 DUP1        0.0000
     90 C33        -5.2720   11.4700   -0.1030 C.3       1 DUP1        0.0000
     91 H3X        -6.2840   11.1400   -0.4330 H         1 DUP1        0.0000
     92 H3Y        -4.6180   11.5030   -1.0050 H         1 DUP1        0.0000
     93 C34        -5.3800   12.8820    0.4880 C.3       1 DUP1        0.0000
     94 H4X        -4.3630   13.2390    0.7690 H         1 DUP1        0.0000
     95 H4Y        -5.9910   12.8400    1.4180 H         1 DUP1        0.0000
     96 C35        -6.0190   13.8890   -0.4780 C.3       1 DUP1        0.0000
     97 H5X        -7.0340   13.5260   -0.7590 H         1 DUP1        0.0000
     98 H5Y        -5.4100   13.9450   -1.4080 H         1 DUP1        0.0000
     99 C36        -6.1400   15.2910    0.1340 C.3       1 DUP1        0.0000
    100 H6X        -5.1230   15.6750    0.3720 H         1 DUP1        0.0000
    101 H6Y        -6.7080   15.2210    1.0890 H         1 DUP1        0.0000
    102 C37        -6.8510   16.2890   -0.7920 C.3       1 DUP1        0.0000
    103 H7X        -7.8600   15.8870   -1.0370 H         1 DUP1        0.0000
    104 H7Y        -6.2780   16.3740   -1.7420 H         1 DUP1        0.0000
    105 C38        -6.9860   17.6810   -0.1450 C.3       1 DUP1        0.0000
    106 H8X        -5.9590   18.0480    0.0750 H         1 DUP1        0.0000
    107 H8Y        -7.5020   17.5620    0.8340 H         1 DUP1        0.0000
    108 C39        -7.7660   18.6380   -1.0150 C.2       1 DUP1        0.0000
    109 H9X        -8.7780   18.2910   -1.2790 H         1 DUP1        0.0000
    110 C310       -7.3490   19.8260   -1.4950 C.2       1 DUP1        0.0000
    111 H10X       -8.0420   20.4110   -2.1200 H         1 DUP1        0.0000
    112 C311       -6.0100   20.4880   -1.2620 C.3       1 DUP1        0.0000
    113 H11X       -5.4800   20.0300   -0.3980 H         1 DUP1        0.0000
    114 H11Y       -6.1800   21.5480   -0.9680 H         1 DUP1        0.0000
    115 C312       -5.1170   20.4320   -2.4760 C.2       1 DUP1        0.0000
    116 H12X       -5.4840   19.8560   -3.3420 H         1 DUP1        0.0000
    117 C313       -3.9200   21.0330   -2.5560 C.2       1 DUP1        0.0000
    118 H13X       -3.5380   21.6030   -1.6940 H         1 DUP1        0.0000
    119 C314       -3.0360   20.9770   -3.7740 C.3       1 DUP1        0.0000
    120 H14X       -3.5490   21.4560   -4.6380 H         1 DUP1        0.0000
    121 H14Y       -2.8350   19.9190   -4.0590 H         1 DUP1        0.0000
    122 C315       -1.6870   21.6870   -3.5640 C.3       1 DUP1        0.0000
    123 H15X       -1.1340   21.1990   -2.7300 H         1 DUP1        0.0000
    124 H15Y       -1.8640   22.7500   -3.2840 H         1 DUP1        0.0000
    125 C316       -0.8080   21.6560   -4.8240 C.3       1 DUP1        0.0000
    126 H16X       -1.3540   22.1450   -5.6620 H         1 DUP1        0.0000
    127 H16Y       -0.6210   20.5980   -5.1140 H         1 DUP1        0.0000
    128 C317        0.5360   22.3670   -4.6200 C.3       1 DUP1        0.0000
    129 H17X        1.0780   21.8720   -3.7820 H         1 DUP1        0.0000
    130 H17Y        0.3400   23.4200   -4.3120 H         1 DUP1        0.0000
    131 C318        1.4260   22.3670   -5.8650 C.3       1 DUP1        0.0000
    132 H18X        0.9180   22.8830   -6.7070 H         1 DUP1        0.0000
    133 H18Y        1.6570   21.3260   -6.1790 H         1 DUP1        0.0000
    134 H18Z        2.3840   22.8910   -5.6590 H         1 DUP1        0.0000
@<TRIPOS>BOND
     1  132  131 1 
     2  133  131 1 
     3  131  134 1 
     4  131  128 1 
     5  126  125 1 
     6  127  125 1 
     7  125  128 1 
     8  125  122 1 
     9  120  119 1 
    10  128  130 1 
    11  128  129 1 
    12  121  119 1 
    13  119  122 1 
    14  119  117 1 
    15  122  124 1 
    16  122  123 1 
    17  116  115 1 
    18  117  115 2 
    19  117  118 1 
    20  115  112 1 
    21  111  110 1 
    22    7    5 1 
    23   18   17 1 
    24   19   17 1 
    25  104  102 1 
    26  110  112 1 
    27  110  108 2 
    28   98   96 1 
    29  109  108 1 
    30  112  114 1 
    31  112  113 1 
    32    6    5 1 
    33    8    5 1 
    34    5    1 1 
    35   17   23 1 
    36   17    2 1 
    37  103  102 1 
    38  108  105 1 
    39   92   90 1 
    40   21   20 2 
    41   14   13 1 
    42   41   40 2 
    43  102  105 1 
    44  102   99 1 
    45   97   96 1 
    46   23   20 1 
    47   96   99 1 
    48   96   93 1 
    49   27   25 1 
    50   91   90 1 
    51   29   28 1 
    52  105  106 1 
    53  105  107 1 
    54   90   93 1 
    55   90   42 1 
    56   20   24 1 
    57   20   22 1 
    58    2    1 1 
    59    2    3 1 
    60    2    4 1 
    61    1   13 1 
    62    1    9 1 
    63   16   13 1 
    64   13   15 1 
    65   24   25 1 
    66   38   36 1 
    67   99  100 1 
    68   99  101 1 
    69   40   42 1 
    70   40   39 1 
    71   25   28 1 
    72   25   26 1 
    73   93   94 1 
    74   93   95 1 
    75   28   36 1 
    76   28   30 1 
    77   42   43 1 
    78   42   44 1 
    79   36   39 1 
    80   36   37 1 
    81   32   31 2 
    82    9   12 1 
    83    9   11 1 
    84    9   10 1 
    85   30   31 1 
    86   31   33 1 
    87   47   45 1 
    88   34   33 1 
    89   33   45 1 
    90   33   35 1 
    91   46   45 1 
    92   45   48 1 
    93   53   51 1 
    94   52   51 1 
    95   48   49 1 
    96   48   51 1 
    97   48   50 1 
    98   88   86 1 
    99   51   54 1 
   100   87   86 1 
   101   82   80 1 
   102   59   57 1 
   103   86   89 1 
   104   86   83 1 
   105   81   80 1 
   106   76   74 1 
   107   58   57 1 
   108   80   83 1 
   109   80   77 1 
   110   54   57 1 
   111   54   55 1 
   112   54   56 1 
   113   75   74 1 
   114   57   60 1 
   115   71   70 1 
   116   83   84 1 
   117   83   85 1 
   118   74   77 1 
   119   74   72 1 
   120   77   78 1 
   121   77   79 1 
   122   64   63 1 
   123   70   72 2 
   124   70   67 1 
   125   60   63 1 
   126   60   61 1 
   127   60   62 1 
   128   63   65 2 
   129   72   73 1 
   130   65   66 1 
   131   65   67 1 
   132   67   68 1 
   133   67   69 1 
