@<TRIPOS>MOLECULE
C:\Users\Praveer\PycharmProjects\pdb_to_mol2_converter\data\pdb\dxpa.pdb
  108   107     0     0     0
SMALL
GASTEIGER

@<TRIPOS>ATOM
      1 P           1.5420    0.0510   -0.0440 P.3       1 DXP1        0.0000
      2 O13         2.0630   -0.4430   -1.3290 O.2       1 DXP1        0.0000
      3 O14         2.0960   -0.5120    1.1980 O.3       1 DXP1        0.0000
      4 O12         1.9870    1.5530   -0.0080 O.3       1 DXP1        0.0000
      5 H12         2.9470    1.5440   -0.0080 H         1 DXP1        0.0000
      6 O11        -0.0380    0.0360   -0.0290 O.3       1 DXP1        0.0000
      7 C1         -0.6880   -1.2220   -0.2440 C.3       1 DXP1        0.0000
      8 HA         -0.2650   -2.0190    0.4150 H         1 DXP1        0.0000
      9 HB         -0.5660   -1.5340   -1.3070 H         1 DXP1        0.0000
     10 C2         -2.2020   -1.1150    0.0710 C.3       1 DXP1        0.0000
     11 HS         -2.6000   -0.2770   -0.5510 H         1 DXP1        0.0000
     12 O21        -2.3470   -0.8680    1.4820 O.3       1 DXP1        0.0000
     13 C21        -3.3640   -0.1070    1.8220 C.2       1 DXP1        0.0000
     14 O22        -4.2020    0.3660    1.0730 O.2       1 DXP1        0.0000
     15 C22        -3.3530    0.0680    3.3410 C.3       1 DXP1        0.0000
     16 H2R        -2.4020    0.5660    3.6200 H         1 DXP1        0.0000
     17 H2S        -3.3710   -0.9430    3.7970 H         1 DXP1        0.0000
     18 C3         -2.9390   -2.4290   -0.3180 C.3       1 DXP1        0.0000
     19 HX         -2.4410   -3.2510    0.2430 H         1 DXP1        0.0000
     20 HY         -2.7800   -2.6360   -1.4020 H         1 DXP1        0.0000
     21 O31        -4.3350   -2.4110    0.0510 O.3       1 DXP1        0.0000
     22 C31        -5.1520   -1.8760   -0.8520 C.2       1 DXP1        0.0000
     23 O32        -4.8470   -1.5530   -1.9850 O.2       1 DXP1        0.0000
     24 C32        -6.5470   -1.7590   -0.2360 C.3       1 DXP1        0.0000
     25 H2X        -6.5070   -0.9440    0.5180 H         1 DXP1        0.0000
     26 H2Y        -6.7760   -2.7120    0.2840 H         1 DXP1        0.0000
     27 C23        -4.5590    0.8950    3.8400 C.3       1 DXP1        0.0000
     28 H3R        -5.5050    0.4330    3.4740 H         1 DXP1        0.0000
     29 H3S        -4.5050    1.9250    3.4200 H         1 DXP1        0.0000
     30 C24        -4.6210    0.9750    5.3700 C.3       1 DXP1        0.0000
     31 H4R        -3.6870    1.4450    5.7540 H         1 DXP1        0.0000
     32 H4S        -4.6770   -0.0560    5.7850 H         1 DXP1        0.0000
     33 C25        -5.8320    1.7780    5.8630 C.3       1 DXP1        0.0000
     34 H5R        -6.7580    1.3370    5.4280 H         1 DXP1        0.0000
     35 H5S        -5.7520    2.8250    5.4950 H         1 DXP1        0.0000
     36 C26        -5.9610    1.7850    7.3920 C.3       1 DXP1        0.0000
     37 H6R        -5.0430    2.2320    7.8370 H         1 DXP1        0.0000
     38 H6S        -6.0360    0.7350    7.7530 H         1 DXP1        0.0000
     39 C27        -7.1900    2.5690    7.8740 C.3       1 DXP1        0.0000
     40 H7R        -8.0940    2.1500    7.3770 H         1 DXP1        0.0000
     41 H7S        -7.0850    3.6300    7.5510 H         1 DXP1        0.0000
     42 C28        -7.3660    2.5070    9.4020 C.3       1 DXP1        0.0000
     43 H8R        -6.4280    2.8870    9.8660 H         1 DXP1        0.0000
     44 H8S        -7.4660    1.4400    9.7020 H         1 DXP1        0.0000
     45 C29        -8.5800    3.2840    9.8520 C.2       1 DXP1        0.0000
     46 H9R        -9.5130    3.0180    9.3320 H         1 DXP1        0.0000
     47 C210       -8.6110    4.2610   10.7770 C.2       1 DXP1        0.0000
     48 H10R       -9.5700    4.7570   10.9920 H         1 DXP1        0.0000
     49 C211       -7.4420    4.7600   11.5910 C.3       1 DXP1        0.0000
     50 H11R       -6.6710    3.9690   11.7240 H         1 DXP1        0.0000
     51 H11S       -7.7830    5.0380   12.6130 H         1 DXP1        0.0000
     52 C212       -6.7680    5.9840   10.9460 C.3       1 DXP1        0.0000
     53 H12R       -7.5090    6.8080   10.8350 H         1 DXP1        0.0000
     54 H12S       -6.4070    5.7140    9.9270 H         1 DXP1        0.0000
     55 C213       -5.5780    6.4950   11.7690 C.3       1 DXP1        0.0000
     56 H13R       -4.8350    5.6740   11.8810 H         1 DXP1        0.0000
     57 H13S       -5.9310    6.7730   12.7880 H         1 DXP1        0.0000
     58 C214       -4.8900    7.7080   11.1270 C.3       1 DXP1        0.0000
     59 H14R       -5.6300    8.5330   11.0210 H         1 DXP1        0.0000
     60 H14S       -4.5430    7.4310   10.1060 H         1 DXP1        0.0000
     61 C215       -3.6920    8.2090   11.9440 C.3       1 DXP1        0.0000
     62 H15R       -2.9590    7.3770   12.0520 H         1 DXP1        0.0000
     63 H15S       -4.0430    8.4790   12.9660 H         1 DXP1        0.0000
     64 C216       -2.9930    9.4180   11.3160 C.3       1 DXP1        0.0000
     65 H16R       -3.7000   10.2700   11.2220 H         1 DXP1        0.0000
     66 H16S       -2.6130    9.1640   10.3030 H         1 DXP1        0.0000
     67 H16T       -2.1340    9.7410   11.9430 H         1 DXP1        0.0000
     68 C33        -7.6420   -1.4500   -1.2800 C.3       1 DXP1        0.0000
     69 H3X        -7.6580   -2.2530   -2.0530 H         1 DXP1        0.0000
     70 H3Y        -7.4100   -0.4900   -1.7970 H         1 DXP1        0.0000
     71 C34        -9.0310   -1.3520   -0.6370 C.3       1 DXP1        0.0000
     72 H4X        -9.0370   -0.5120    0.0940 H         1 DXP1        0.0000
     73 H4Y        -9.2360   -2.2910   -0.0740 H         1 DXP1        0.0000
     74 C35       -10.1530   -1.1380   -1.6630 C.3       1 DXP1        0.0000
     75 H5X       -10.1340   -1.9760   -2.3950 H         1 DXP1        0.0000
     76 H5Y        -9.9670   -0.1950   -2.2230 H         1 DXP1        0.0000
     77 C36       -11.5410   -1.0770   -1.0100 C.3       1 DXP1        0.0000
     78 H6X       -11.5840   -0.2060   -0.3190 H         1 DXP1        0.0000
     79 H6Y       -11.6960   -1.9980   -0.4040 H         1 DXP1        0.0000
     80 C37       -12.6770   -0.9660   -2.0380 C.3       1 DXP1        0.0000
     81 H7X       -12.6070   -1.8330   -2.7330 H         1 DXP1        0.0000
     82 H7Y       -12.5330   -0.0370   -2.6360 H         1 DXP1        0.0000
     83 C38       -14.0670   -0.9420   -1.3740 C.3       1 DXP1        0.0000
     84 H8X       -14.1000   -0.0660   -0.6890 H         1 DXP1        0.0000
     85 H8Y       -14.1680   -1.8500   -0.7390 H         1 DXP1        0.0000
     86 C39       -15.1740   -0.9140   -2.4000 C.2       1 DXP1        0.0000
     87 H9X       -15.1670   -1.7680   -3.0950 H         1 DXP1        0.0000
     88 C310      -16.1260    0.0270   -2.5520 C.2       1 DXP1        0.0000
     89 H10X      -16.8590   -0.0960   -3.3650 H         1 DXP1        0.0000
     90 C311      -16.3210    1.2730   -1.7230 C.3       1 DXP1        0.0000
     91 H11X      -15.7400    1.2430   -0.7750 H         1 DXP1        0.0000
     92 H11Y      -17.3910    1.3670   -1.4320 H         1 DXP1        0.0000
     93 C312      -15.9110    2.5390   -2.4960 C.3       1 DXP1        0.0000
     94 H12X      -16.5010    2.6130   -3.4380 H         1 DXP1        0.0000
     95 H12Y      -14.8340    2.4710   -2.7740 H         1 DXP1        0.0000
     96 C313      -16.1290    3.8220   -1.6810 C.3       1 DXP1        0.0000
     97 H13X      -15.5310    3.7630   -0.7440 H         1 DXP1        0.0000
     98 H13Y      -17.2020    3.8930   -1.3930 H         1 DXP1        0.0000
     99 C314      -15.7330    5.0870   -2.4540 C.3       1 DXP1        0.0000
    100 H14X      -16.3330    5.1450   -3.3890 H         1 DXP1        0.0000
    101 H14Y      -14.6610    5.0150   -2.7450 H         1 DXP1        0.0000
    102 C315      -15.9460    6.3710   -1.6410 C.3       1 DXP1        0.0000
    103 H15X      -15.3430    6.3070   -0.7070 H         1 DXP1        0.0000
    104 H15Y      -17.0170    6.4320   -1.3430 H         1 DXP1        0.0000
    105 C316      -15.5620    7.6410   -2.4040 C.3       1 DXP1        0.0000
    106 H16X      -16.1710    7.7390   -3.3280 H         1 DXP1        0.0000
    107 H16Y      -14.4890    7.6110   -2.6930 H         1 DXP1        0.0000
    108 H16Z      -15.7310    8.5410   -1.7740 H         1 DXP1        0.0000
@<TRIPOS>BOND
     1   94   93 1 
     2  100   99 1 
     3   89   88 1 
     4  106  105 1 
     5   87   86 1 
     6   95   93 1 
     7  101   99 1 
     8   81   80 1 
     9  107  105 1 
    10   82   80 1 
    11   88   86 2 
    12   88   90 1 
    13   93   90 1 
    14   93   96 1 
    15   99   96 1 
    16   99  102 1 
    17  105  108 1 
    18  105  102 1 
    19   86   83 1 
    20   75   74 1 
    21   76   74 1 
    22   69   68 1 
    23   80   83 1 
    24   80   77 1 
    25   23   22 2 
    26   70   68 1 
    27   90   92 1 
    28   90   91 1 
    29   96   98 1 
    30   96   97 1 
    31   74   77 1 
    32   74   71 1 
    33  102  104 1 
    34  102  103 1 
    35   20   18 1 
    36   83   85 1 
    37   83   84 1 
    38    2    1 2 
    39    9    7 1 
    40   68   71 1 
    41   68   24 1 
    42   77   79 1 
    43   77   78 1 
    44   22   24 1 
    45   22   21 1 
    46   71   73 1 
    47   71   72 1 
    48   11   10 1 
    49   18   21 1 
    50   18   10 1 
    51   18   19 1 
    52    7    6 1 
    53    7   10 1 
    54    7    8 1 
    55   24   26 1 
    56   24   25 1 
    57    1    6 1 
    58    1    4 1 
    59    1    3 1 
    60    5    4 1 
    61   10   12 1 
    62   14   13 2 
    63   12   13 1 
    64   13   15 1 
    65   15   16 1 
    66   15   17 1 
    67   15   27 1 
    68   29   27 1 
    69   28   27 1 
    70   27   30 1 
    71   30   31 1 
    72   30   32 1 
    73   30   33 1 
    74   34   33 1 
    75   35   33 1 
    76   33   36 1 
    77   40   39 1 
    78   36   38 1 
    79   36   37 1 
    80   36   39 1 
    81   41   39 1 
    82   39   42 1 
    83   46   45 1 
    84   42   44 1 
    85   42   45 1 
    86   42   43 1 
    87   45   47 2 
    88   54   52 1 
    89   60   58 1 
    90   66   64 1 
    91   47   48 1 
    92   47   49 1 
    93   53   52 1 
    94   52   49 1 
    95   52   55 1 
    96   59   58 1 
    97   58   55 1 
    98   58   61 1 
    99   65   64 1 
   100   64   67 1 
   101   64   61 1 
   102   49   50 1 
   103   49   51 1 
   104   55   56 1 
   105   55   57 1 
   106   61   62 1 
   107   61   63 1 
