@<TRIPOS>MOLECULE
C:\Users\Praveer\PycharmProjects\pdb_to_mol2_converter\data\pdb\dxpc.pdb
  126   125     0     0     0
SMALL
GASTEIGER

@<TRIPOS>ATOM
      1 N           1.5080   -0.0060   -0.0050 N.4       1 DXP1        0.0000
      2 C13         2.0050   -0.7230   -1.2210 C.3       1 DXP1        0.0000
      3 H13A        1.6490   -1.7450   -1.2430 H         1 DXP1        0.0000
      4 H13B        3.0860   -0.7250   -1.2600 H         1 DXP1        0.0000
      5 H13C        1.6400   -0.2220   -2.1120 H         1 DXP1        0.0000
      6 C14         1.9850   -0.6880    1.2420 C.3       1 DXP1        0.0000
      7 H14A        3.0650   -0.6990    1.2970 H         1 DXP1        0.0000
      8 H14B        1.6250   -1.7070    1.2850 H         1 DXP1        0.0000
      9 H14C        1.6050   -0.1650    2.1150 H         1 DXP1        0.0000
     10 C15         0.0050   -0.0150    0.0050 C.3       1 DXP1        0.0000
     11 H15A       -0.4180   -1.0030    0.0010 H         1 DXP1        0.0000
     12 H15B       -0.3950    0.5550   -0.8390 H         1 DXP1        0.0000
     13 H15C       -0.3700    0.5410    0.8670 H         1 DXP1        0.0000
     14 C12         1.9740    1.4420   -0.0080 C.3       1 DXP1        0.0000
     15 H12A        3.0400    1.5180    0.1340 H         1 DXP1        0.0000
     16 H12B        1.5170    1.9490    0.8500 H         1 DXP1        0.0000
     17 C11         1.5710    2.3000   -1.2250 C.3       1 DXP1        0.0000
     18 H11A        0.9000    1.7640   -1.9340 H         1 DXP1        0.0000
     19 H11B        2.4860    2.5730   -1.7960 H         1 DXP1        0.0000
     20 P          -0.4600    3.3740   -0.0380 P.3       1 DXP1        0.0000
     21 O13        -1.3450    2.5560   -0.8970 O.2       1 DXP1        0.0000
     22 O14        -0.2140    2.8420    1.3230 O.3       1 DXP1        0.0000
     23 O12         0.9540    3.4930   -0.7520 O.3       1 DXP1        0.0000
     24 O11        -0.9780    4.8660    0.0310 O.3       1 DXP1        0.0000
     25 C1         -2.3500    5.0840    0.3780 C.3       1 DXP1        0.0000
     26 HA         -2.6390    4.5020    1.2870 H         1 DXP1        0.0000
     27 HB         -3.0090    4.7810   -0.4680 H         1 DXP1        0.0000
     28 C2         -2.6060    6.5810    0.6930 C.3       1 DXP1        0.0000
     29 HS         -2.3110    7.1560   -0.2180 H         1 DXP1        0.0000
     30 O21        -1.8140    6.9370    1.8430 O.3       1 DXP1        0.0000
     31 C21        -1.3760    8.1800    1.8620 C.2       1 DXP1        0.0000
     32 O22        -1.5790    9.0340    1.0170 O.2       1 DXP1        0.0000
     33 C22        -0.5810    8.3970    3.1500 C.3       1 DXP1        0.0000
     34 H2R         0.2730    7.6900    3.1490 H         1 DXP1        0.0000
     35 H2S        -1.2470    8.1510    4.0030 H         1 DXP1        0.0000
     36 C3         -4.1150    6.8330    0.9830 C.3       1 DXP1        0.0000
     37 HX         -4.3910    6.1720    1.8350 H         1 DXP1        0.0000
     38 HY         -4.7210    6.5020    0.1090 H         1 DXP1        0.0000
     39 O31        -4.3870    8.1980    1.3660 O.3       1 DXP1        0.0000
     40 C31        -4.6030    9.0370    0.3560 C.2       1 DXP1        0.0000
     41 O32        -4.7190    8.7230   -0.8140 O.2       1 DXP1        0.0000
     42 C32        -4.7050   10.4560    0.9150 C.3       1 DXP1        0.0000
     43 H2X        -3.6830   10.7640    1.2210 H         1 DXP1        0.0000
     44 H2Y        -5.3520   10.4270    1.8160 H         1 DXP1        0.0000
     45 C23        -0.0730    9.8500    3.2800 C.3       1 DXP1        0.0000
     46 H3R        -0.9330   10.5550    3.1980 H         1 DXP1        0.0000
     47 H3S         0.6270   10.0780    2.4440 H         1 DXP1        0.0000
     48 C24         0.6380   10.1060    4.6150 C.3       1 DXP1        0.0000
     49 H4R         1.5060    9.4160    4.7100 H         1 DXP1        0.0000
     50 H4S        -0.0650    9.8820    5.4490 H         1 DXP1        0.0000
     51 C25         1.1260   11.5550    4.7490 C.3       1 DXP1        0.0000
     52 H5R         0.2630   12.2420    4.5990 H         1 DXP1        0.0000
     53 H5S         1.8690   11.7660    3.9470 H         1 DXP1        0.0000
     54 C26         1.7590   11.8460    6.1160 C.3       1 DXP1        0.0000
     55 H6R         2.6290   11.1700    6.2720 H         1 DXP1        0.0000
     56 H6S         1.0130   11.6280    6.9130 H         1 DXP1        0.0000
     57 C27         2.2220   13.3040    6.2520 C.3       1 DXP1        0.0000
     58 H7R         1.3560   13.9720    6.0370 H         1 DXP1        0.0000
     59 H7S         3.0040   13.5030    5.4840 H         1 DXP1        0.0000
     60 C28         2.7800   13.6160    7.6520 C.3       1 DXP1        0.0000
     61 H8R         3.6120   12.9050    7.8510 H         1 DXP1        0.0000
     62 H8S         1.9860   13.4040    8.4030 H         1 DXP1        0.0000
     63 C29         3.2210   15.0560    7.7660 C.2       1 DXP1        0.0000
     64 H9R         2.4630   15.7940    7.4610 H         1 DXP1        0.0000
     65 C210        4.4300   15.4970    8.1620 C.2       1 DXP1        0.0000
     66 H10R        4.6200   16.5810    8.1790 H         1 DXP1        0.0000
     67 C211        5.5890   14.6430    8.6140 C.3       1 DXP1        0.0000
     68 H11R        5.2400   13.6820    9.0530 H         1 DXP1        0.0000
     69 H11S        6.1540   15.1660    9.4180 H         1 DXP1        0.0000
     70 C212        6.5560   14.3220    7.4610 C.3       1 DXP1        0.0000
     71 H12R        6.9540   15.2670    7.0280 H         1 DXP1        0.0000
     72 H12S        6.0050   13.7850    6.6550 H         1 DXP1        0.0000
     73 C213        7.7350   13.4490    7.9140 C.3       1 DXP1        0.0000
     74 H13R        7.3400   12.5020    8.3460 H         1 DXP1        0.0000
     75 H13S        8.2950   13.9800    8.7160 H         1 DXP1        0.0000
     76 C214        8.6980   13.1130    6.7670 C.3       1 DXP1        0.0000
     77 H14R        9.0980   14.0580    6.3370 H         1 DXP1        0.0000
     78 H14S        8.1360   12.5870    5.9620 H         1 DXP1        0.0000
     79 C215        9.8690   12.2310    7.2180 C.3       1 DXP1        0.0000
     80 H15R        9.4620   11.2890    7.6510 H         1 DXP1        0.0000
     81 H15S       10.4230   12.7580    8.0280 H         1 DXP1        0.0000
     82 C216       10.8400   11.8860    6.0860 C.3       1 DXP1        0.0000
     83 H16R       11.2790   12.8110    5.6550 H         1 DXP1        0.0000
     84 H16S       10.3140   11.3370    5.2760 H         1 DXP1        0.0000
     85 H16T       11.6680   11.2470    6.4630 H         1 DXP1        0.0000
     86 C33        -5.2710   11.4680   -0.1060 C.3       1 DXP1        0.0000
     87 H3X        -6.2840   11.1400   -0.4340 H         1 DXP1        0.0000
     88 H3Y        -4.6180   11.5000   -1.0080 H         1 DXP1        0.0000
     89 C34        -5.3750   12.8790    0.4890 C.3       1 DXP1        0.0000
     90 H4X        -4.3570   13.2330    0.7690 H         1 DXP1        0.0000
     91 H4Y        -5.9850   12.8360    1.4190 H         1 DXP1        0.0000
     92 C35        -6.0140   13.8900   -0.4730 C.3       1 DXP1        0.0000
     93 H5X        -7.0280   13.5270   -0.7550 H         1 DXP1        0.0000
     94 H5Y        -5.4060   13.9510   -1.4030 H         1 DXP1        0.0000
     95 C36        -6.1380   15.2900    0.1450 C.3       1 DXP1        0.0000
     96 H6X        -5.1210   15.6790    0.3770 H         1 DXP1        0.0000
     97 H6Y        -6.6970   15.2120    1.1050 H         1 DXP1        0.0000
     98 C37        -6.8650   16.2850   -0.7710 C.3       1 DXP1        0.0000
     99 H7X        -7.8720   15.8710   -1.0080 H         1 DXP1        0.0000
    100 H7Y        -6.3010   16.3760   -1.7260 H         1 DXP1        0.0000
    101 C38        -7.0140   17.6750   -0.1240 C.3       1 DXP1        0.0000
    102 H8X        -5.9920   18.0570    0.0960 H         1 DXP1        0.0000
    103 H8Y        -7.5280   17.5530    0.8550 H         1 DXP1        0.0000
    104 C39        -7.8060   18.6160   -0.9990 C.2       1 DXP1        0.0000
    105 H9X        -8.8210   18.2630   -1.2390 H         1 DXP1        0.0000
    106 C310       -7.4010   19.7950   -1.5100 C.2       1 DXP1        0.0000
    107 H10X       -8.1020   20.3590   -2.1450 H         1 DXP1        0.0000
    108 C311       -6.0620   20.4640   -1.3170 C.3       1 DXP1        0.0000
    109 H11X       -5.4830   20.0130   -0.4810 H         1 DXP1        0.0000
    110 H11Y       -6.2110   21.5350   -1.0530 H         1 DXP1        0.0000
    111 C312       -5.2020   20.3890   -2.5920 C.3       1 DXP1        0.0000
    112 H12X       -5.7450   20.8650   -3.4400 H         1 DXP1        0.0000
    113 H12Y       -5.0260   19.3220   -2.8570 H         1 DXP1        0.0000
    114 C313       -3.8440   21.0860   -2.4260 C.3       1 DXP1        0.0000
    115 H13X       -3.2880   20.6050   -1.5910 H         1 DXP1        0.0000
    116 H13Y       -4.0130   22.1520   -2.1510 H         1 DXP1        0.0000
    117 C314       -2.9920   21.0260   -3.7010 C.3       1 DXP1        0.0000
    118 H14X       -3.5490   21.5090   -4.5350 H         1 DXP1        0.0000
    119 H14Y       -2.8250   19.9610   -3.9780 H         1 DXP1        0.0000
    120 C315       -1.6330   21.7200   -3.5390 C.3       1 DXP1        0.0000
    121 H15X       -1.0790   21.2320   -2.7050 H         1 DXP1        0.0000
    122 H15Y       -1.8050   22.7820   -3.2480 H         1 DXP1        0.0000
    123 C316       -0.7760   21.6780   -4.8060 C.3       1 DXP1        0.0000
    124 H16X       -1.2990   22.1840   -5.6460 H         1 DXP1        0.0000
    125 H16Y       -0.5720   20.6260   -5.1030 H         1 DXP1        0.0000
    126 H16Z        0.1960   22.1900   -4.6380 H         1 DXP1        0.0000
@<TRIPOS>BOND
     1  124  123 1 
     2  125  123 1 
     3  123  126 1 
     4  123  120 1 
     5  118  117 1 
     6  119  117 1 
     7  117  120 1 
     8  117  114 1 
     9  120  122 1 
    10  120  121 1 
    11  112  111 1 
    12  113  111 1 
    13  111  114 1 
    14  111  108 1 
    15  114  116 1 
    16  114  115 1 
    17  107  106 1 
    18    5    2 1 
    19   18   17 1 
    20   19   17 1 
    21  100   98 1 
    22  106  108 1 
    23  106  104 2 
    24   94   92 1 
    25  108  110 1 
    26  108  109 1 
    27    4    2 1 
    28    3    2 1 
    29  105  104 1 
    30   17   23 1 
    31   17   14 1 
    32    2    1 1 
    33   99   98 1 
    34   88   86 1 
    35  104  101 1 
    36   21   20 2 
    37   12   10 1 
    38   41   40 2 
    39   98  101 1 
    40   98   95 1 
    41   93   92 1 
    42   23   20 1 
    43   92   95 1 
    44   92   89 1 
    45   27   25 1 
    46   87   86 1 
    47   29   28 1 
    48  101  102 1 
    49  101  103 1 
    50   86   89 1 
    51   86   42 1 
    52   20   24 1 
    53   20   22 1 
    54   14    1 1 
    55   14   15 1 
    56   14   16 1 
    57    1   10 1 
    58    1    6 1 
    59   11   10 1 
    60   10   13 1 
    61   24   25 1 
    62   38   36 1 
    63   95   96 1 
    64   95   97 1 
    65   40   42 1 
    66   40   39 1 
    67   25   28 1 
    68   25   26 1 
    69   89   90 1 
    70   89   91 1 
    71   28   36 1 
    72   28   30 1 
    73   42   43 1 
    74   42   44 1 
    75   36   39 1 
    76   36   37 1 
    77   32   31 2 
    78    6    8 1 
    79    6    7 1 
    80    6    9 1 
    81   30   31 1 
    82   31   33 1 
    83   47   45 1 
    84   34   33 1 
    85   33   45 1 
    86   33   35 1 
    87   46   45 1 
    88   45   48 1 
    89   53   51 1 
    90   52   51 1 
    91   48   49 1 
    92   48   51 1 
    93   48   50 1 
    94   51   54 1 
    95   84   82 1 
    96   59   57 1 
    97   83   82 1 
    98   78   76 1 
    99   58   57 1 
   100   82   85 1 
   101   82   79 1 
   102   54   57 1 
   103   54   55 1 
   104   54   56 1 
   105   57   60 1 
   106   77   76 1 
   107   72   70 1 
   108   76   79 1 
   109   76   73 1 
   110   71   70 1 
   111   79   80 1 
   112   79   81 1 
   113   64   63 1 
   114   70   73 1 
   115   70   67 1 
   116   60   63 1 
   117   60   61 1 
   118   60   62 1 
   119   63   65 2 
   120   73   74 1 
   121   73   75 1 
   122   65   66 1 
   123   65   67 1 
   124   67   68 1 
   125   67   69 1 
