@<TRIPOS>MOLECULE
C:\Users\Praveer\PycharmProjects\pdb_to_mol2_converter\data\pdb\dxpe.pdb
  117   116     0     0     0
SMALL
GASTEIGER

@<TRIPOS>ATOM
      1 N           1.0320    0.3780   -0.6540 N.4       1 DXP1        0.0000
      2 HN1         0.0330    0.3010   -0.3890 H         1 DXP1        0.0000
      3 HN2         1.4770   -0.5510   -0.7720 H         1 DXP1        0.0000
      4 HN3         1.0820    0.8460   -1.6040 H         1 DXP1        0.0000
      5 C12         1.8360    1.2580    0.2740 C.3       1 DXP1        0.0000
      6 H12A        1.9210    0.7400    1.2470 H         1 DXP1        0.0000
      7 H12B        1.2630    2.1910    0.4220 H         1 DXP1        0.0000
      8 C11         3.2360    1.6090   -0.2770 C.3       1 DXP1        0.0000
      9 H11A        3.8480    0.6920   -0.4270 H         1 DXP1        0.0000
     10 H11B        3.7590    2.2020    0.5090 H         1 DXP1        0.0000
     11 P           2.8230    1.7650   -2.8580 P.3       1 DXP1        0.0000
     12 O13         3.3310    0.3800   -2.8480 O.3       1 DXP1        0.0000
     13 O14         1.3480    1.8570   -2.9330 O.2       1 DXP1        0.0000
     14 O12         3.1800    2.4090   -1.4590 O.3       1 DXP1        0.0000
     15 O11         3.5560    2.6650   -3.9190 O.3       1 DXP1        0.0000
     16 C1          3.2530    2.5410   -5.3090 C.3       1 DXP1        0.0000
     17 HA          2.1510    2.5260   -5.4880 H         1 DXP1        0.0000
     18 HB          3.6950    1.6010   -5.7140 H         1 DXP1        0.0000
     19 C2          3.8440    3.7480   -6.0860 C.3       1 DXP1        0.0000
     20 HS          4.9250    3.8070   -5.8110 H         1 DXP1        0.0000
     21 O21         3.1130    4.9270   -5.6930 O.3       1 DXP1        0.0000
     22 C21         3.8110    6.0470   -5.6960 C.2       1 DXP1        0.0000
     23 O22         4.9940    6.1610   -5.9500 O.2       1 DXP1        0.0000
     24 C22         2.8710    7.2090   -5.3600 C.3       1 DXP1        0.0000
     25 H2R         2.4770    7.0450   -4.3370 H         1 DXP1        0.0000
     26 H2S         2.0250    7.1740   -6.0760 H         1 DXP1        0.0000
     27 C3          3.7360    3.5410   -7.6270 C.3       1 DXP1        0.0000
     28 HX          2.6570    3.3820   -7.8500 H         1 DXP1        0.0000
     29 HY          4.2650    2.6020   -7.9130 H         1 DXP1        0.0000
     30 O31         4.1860    4.6900   -8.3790 O.3       1 DXP1        0.0000
     31 C31         5.4810    4.7030   -8.6920 C.2       1 DXP1        0.0000
     32 O32         6.2670    3.7990   -8.4890 O.2       1 DXP1        0.0000
     33 C32         5.8040    6.0320   -9.3840 C.3       1 DXP1        0.0000
     34 H2X         5.7450    6.8280   -8.6120 H         1 DXP1        0.0000
     35 H2Y         5.0210    6.2190  -10.1470 H         1 DXP1        0.0000
     36 C23         3.5810    8.5790   -5.4490 C.3       1 DXP1        0.0000
     37 H3R         4.0190    8.7060   -6.4660 H         1 DXP1        0.0000
     38 H3S         4.4190    8.6120   -4.7170 H         1 DXP1        0.0000
     39 C24         2.6290    9.7530   -5.1770 C.3       1 DXP1        0.0000
     40 H4R         2.1800    9.6330   -4.1650 H         1 DXP1        0.0000
     41 H4S         1.8010    9.7250   -5.9200 H         1 DXP1        0.0000
     42 C25         3.3260   11.1200   -5.2570 C.3       1 DXP1        0.0000
     43 H5R         3.8130   11.2190   -6.2540 H         1 DXP1        0.0000
     44 H5S         4.1270   11.1680   -4.4850 H         1 DXP1        0.0000
     45 C26         2.3600   12.2980   -5.0580 C.3       1 DXP1        0.0000
     46 H6R         1.8740   12.2090   -4.0610 H         1 DXP1        0.0000
     47 H6S         1.5600   12.2420   -5.8300 H         1 DXP1        0.0000
     48 C27         3.0570   13.6650   -5.1580 C.3       1 DXP1        0.0000
     49 H7R         3.5860   13.7200   -6.1360 H         1 DXP1        0.0000
     50 H7S         3.8220   13.7360   -4.3520 H         1 DXP1        0.0000
     51 C28         2.0720   14.8460   -5.0400 C.3       1 DXP1        0.0000
     52 H8R         1.5290   14.7400   -4.0740 H         1 DXP1        0.0000
     53 H8S         1.3140   14.7520   -5.8490 H         1 DXP1        0.0000
     54 C29         2.7750   16.1790   -5.1520 C.2       1 DXP1        0.0000
     55 H9R         3.4220   16.2820   -6.0370 H         1 DXP1        0.0000
     56 C210        2.7040   17.2050   -4.2820 C.2       1 DXP1        0.0000
     57 H10R        3.2880   18.1160   -4.4890 H         1 DXP1        0.0000
     58 C211        1.8770   17.2580   -3.0210 C.3       1 DXP1        0.0000
     59 H11R        0.9760   16.6080   -3.0980 H         1 DXP1        0.0000
     60 H11S        1.5030   18.2930   -2.8560 H         1 DXP1        0.0000
     61 C212        2.6810   16.8220   -1.7830 C.3       1 DXP1        0.0000
     62 H12R        3.5680   17.4820   -1.6570 H         1 DXP1        0.0000
     63 H12S        3.0500   15.7810   -1.9300 H         1 DXP1        0.0000
     64 C213        1.8430   16.8680   -0.4970 C.3       1 DXP1        0.0000
     65 H13R        0.9520   16.2120   -0.6210 H         1 DXP1        0.0000
     66 H13S        1.4780   17.9070   -0.3350 H         1 DXP1        0.0000
     67 C214        2.6310   16.4130    0.7390 C.3       1 DXP1        0.0000
     68 H14R        3.5170   17.0730    0.8700 H         1 DXP1        0.0000
     69 H14S        3.0030   15.3770    0.5720 H         1 DXP1        0.0000
     70 C215        1.7890   16.4410    2.0210 C.3       1 DXP1        0.0000
     71 H15R        0.9020   15.7830    1.8810 H         1 DXP1        0.0000
     72 H15S        1.4140   17.4770    2.1810 H         1 DXP1        0.0000
     73 C216        2.5610   15.9870    3.2640 C.3       1 DXP1        0.0000
     74 H16R        3.4390   16.6450    3.4380 H         1 DXP1        0.0000
     75 H16S        2.9240   14.9440    3.1360 H         1 DXP1        0.0000
     76 H16T        1.9090   16.0230    4.1630 H         1 DXP1        0.0000
     77 C33         7.2000    6.0530  -10.0530 C.3       1 DXP1        0.0000
     78 H3X         7.2680    5.2290  -10.7980 H         1 DXP1        0.0000
     79 H3Y         7.9870    5.8780   -9.2850 H         1 DXP1        0.0000
     80 C34         7.4810    7.3870  -10.7640 C.3       1 DXP1        0.0000
     81 H4X         7.4620    8.2100  -10.0160 H         1 DXP1        0.0000
     82 H4Y         6.6690    7.5810  -11.5010 H         1 DXP1        0.0000
     83 C35         8.8290    7.4110  -11.5030 C.3       1 DXP1        0.0000
     84 H5X         8.8450    6.5860  -12.2500 H         1 DXP1        0.0000
     85 H5Y         9.6510    7.2250  -10.7760 H         1 DXP1        0.0000
     86 C36         9.0860    8.7430  -12.2260 C.3       1 DXP1        0.0000
     87 H6X         9.1280    9.5640  -11.4760 H         1 DXP1        0.0000
     88 H6Y         8.2330    8.9520  -12.9090 H         1 DXP1        0.0000
     89 C37        10.3860    8.7410  -13.0470 C.3       1 DXP1        0.0000
     90 H7X        10.3380    7.9030  -13.7790 H         1 DXP1        0.0000
     91 H7Y        11.2450    8.5490  -12.3650 H         1 DXP1        0.0000
     92 C38        10.6130   10.0700  -13.7960 C.3       1 DXP1        0.0000
     93 H8X        10.6560   10.8840  -13.0390 H         1 DXP1        0.0000
     94 H8Y         9.7220   10.2700  -14.4310 H         1 DXP1        0.0000
     95 C39        11.8510   10.0250  -14.6620 C.2       1 DXP1        0.0000
     96 H9X        11.8400    9.2300  -15.4240 H         1 DXP1        0.0000
     97 C310       12.9330   10.8240  -14.5890 C.2       1 DXP1        0.0000
     98 H10X       13.7620   10.6500  -15.2930 H         1 DXP1        0.0000
     99 C311       13.1650   11.9670  -13.6300 C.3       1 DXP1        0.0000
    100 H11X       12.2300   12.2820  -13.1170 H         1 DXP1        0.0000
    101 H11Y       13.5310   12.8580  -14.1880 H         1 DXP1        0.0000
    102 C312       14.2040   11.6040  -12.5540 C.3       1 DXP1        0.0000
    103 H12X       15.1640   11.3150  -13.0390 H         1 DXP1        0.0000
    104 H12Y       13.8410   10.7270  -11.9700 H         1 DXP1        0.0000
    105 C313       14.4740   12.7640  -11.5850 C.3       1 DXP1        0.0000
    106 H13X       13.5220   13.0480  -11.0830 H         1 DXP1        0.0000
    107 H13Y       14.8290   13.6460  -12.1630 H         1 DXP1        0.0000
    108 C314       15.5190   12.4090  -10.5180 C.3       1 DXP1        0.0000
    109 H14X       16.4710   12.1270  -11.0220 H         1 DXP1        0.0000
    110 H14Y       15.1660   11.5230   -9.9430 H         1 DXP1        0.0000
    111 C315       15.7900   13.5630   -9.5450 C.3       1 DXP1        0.0000
    112 H15X       14.8340   13.8400   -9.0440 H         1 DXP1        0.0000
    113 H15Y       16.1310   14.4500  -10.1270 H         1 DXP1        0.0000
    114 C316       16.8380   13.2260   -8.4810 C.3       1 DXP1        0.0000
    115 H16X       17.8080   12.9710   -8.9580 H         1 DXP1        0.0000
    116 H16Y       16.5080   12.3560   -7.8730 H         1 DXP1        0.0000
    117 H16Z       16.9960   14.0900   -7.8010 H         1 DXP1        0.0000
@<TRIPOS>BOND
     1   96   95 1 
     2   98   97 1 
     3   95   97 2 
     4   95   92 1 
     5   97   99 1 
     6   94   92 1 
     7  101   99 1 
     8   92   89 1 
     9   92   93 1 
    10   90   89 1 
    11   99  100 1 
    12   99  102 1 
    13   89   91 1 
    14   89   86 1 
    15  103  102 1 
    16   88   86 1 
    17  102  104 1 
    18  102  105 1 
    19   84   83 1 
    20   86   83 1 
    21   86   87 1 
    22  107  105 1 
    23  105  106 1 
    24  105  108 1 
    25   83   85 1 
    26   83   80 1 
    27   82   80 1 
    28  109  108 1 
    29   78   77 1 
    30   80   77 1 
    31   80   81 1 
    32  108  110 1 
    33  108  111 1 
    34   35   33 1 
    35  113  111 1 
    36   77   33 1 
    37   77   79 1 
    38  111  112 1 
    39  111  114 1 
    40   33   31 1 
    41   33   34 1 
    42  115  114 1 
    43   31   32 2 
    44   31   30 1 
    45  114  116 1 
    46  114  117 1 
    47   30   27 1 
    48   29   27 1 
    49   28   27 1 
    50   27   19 1 
    51   37   36 1 
    52   43   42 1 
    53   49   48 1 
    54   19   20 1 
    55   19   21 1 
    56   19   16 1 
    57   26   24 1 
    58   55   54 1 
    59   23   22 2 
    60   41   39 1 
    61   53   51 1 
    62   47   45 1 
    63   18   16 1 
    64   22   21 1 
    65   22   24 1 
    66   17   16 1 
    67   36   24 1 
    68   36   39 1 
    69   36   38 1 
    70   24   25 1 
    71   16   15 1 
    72   42   39 1 
    73   42   45 1 
    74   42   44 1 
    75   39   40 1 
    76   48   45 1 
    77   48   51 1 
    78   48   50 1 
    79   54   51 1 
    80   54   56 2 
    81   45   46 1 
    82   51   52 1 
    83   57   56 1 
    84   56   58 1 
    85   15   11 1 
    86   59   58 1 
    87   58   60 1 
    88   58   61 1 
    89   13   11 2 
    90   11   12 1 
    91   11   14 1 
    92   63   61 1 
    93   61   62 1 
    94   61   64 1 
    95    4    1 1 
    96   14    8 1 
    97    3    1 1 
    98    1    2 1 
    99    1    5 1 
   100   65   64 1 
   101   64   66 1 
   102   64   67 1 
   103    9    8 1 
   104    8    5 1 
   105    8   10 1 
   106    5    7 1 
   107    5    6 1 
   108   69   67 1 
   109   67   68 1 
   110   67   70 1 
   111   71   70 1 
   112   70   72 1 
   113   70   73 1 
   114   75   73 1 
   115   73   74 1 
   116   73   76 1 
