@<TRIPOS>MOLECULE
C:\Users\Praveer\PycharmProjects\pdb_to_mol2_converter\data\pdb\dxpg.pdb
  119   118     0     0     0
SMALL
GASTEIGER

@<TRIPOS>ATOM
      1 C13        -0.1040    0.0210    0.1860 C.3       1 DXP1        0.0000
      2 H13A       -0.5390    0.2400   -0.8150 H         1 DXP1        0.0000
      3 H13B       -0.5150   -0.9470    0.5460 H         1 DXP1        0.0000
      4 OC3        -0.4620    1.0790    1.0740 O.3       1 DXP1        0.0000
      5 HO3        -0.0400    1.8530    0.6660 H         1 DXP1        0.0000
      6 C12         1.4350   -0.0800    0.0500 C.3       1 DXP1        0.0000
      7 H12A        1.8410   -0.5780    0.9590 H         1 DXP1        0.0000
      8 OC2         1.7650   -0.8910   -1.0740 O.3       1 DXP1        0.0000
      9 HO2         1.5800   -0.3190   -1.8520 H         1 DXP1        0.0000
     10 C11         2.1180    1.3150   -0.0680 C.3       1 DXP1        0.0000
     11 H11A        3.1720    1.1950   -0.4150 H         1 DXP1        0.0000
     12 H11B        2.1800    1.7320    0.9620 H         1 DXP1        0.0000
     13 P           1.6210    2.2560   -2.4330 P.3       1 DXP1        0.0000
     14 O13         3.0040    2.7030   -2.6860 O.3       1 DXP1        0.0000
     15 O14         1.2220    0.9340   -2.9700 O.2       1 DXP1        0.0000
     16 O12         1.3570    2.2360   -0.8660 O.3       1 DXP1        0.0000
     17 O11         0.6140    3.3670   -2.9550 O.3       1 DXP1        0.0000
     18 C1          0.7060    3.7130   -4.3440 C.3       1 DXP1        0.0000
     19 HA          0.3950    2.8500   -4.9780 H         1 DXP1        0.0000
     20 HB          1.7500    4.0020   -4.6190 H         1 DXP1        0.0000
     21 C2         -0.2100    4.9170   -4.6870 C.3       1 DXP1        0.0000
     22 HS          0.1490    5.7720   -4.0640 H         1 DXP1        0.0000
     23 O21        -1.5720    4.5570   -4.3840 O.3       1 DXP1        0.0000
     24 C21        -2.3330    5.5500   -3.9730 C.2       1 DXP1        0.0000
     25 O22        -1.9990    6.7180   -3.8490 O.2       1 DXP1        0.0000
     26 C22        -3.7360    5.0130   -3.6940 C.3       1 DXP1        0.0000
     27 H2R        -3.6580    4.2580   -2.8850 H         1 DXP1        0.0000
     28 H2S        -4.0950    4.5120   -4.6160 H         1 DXP1        0.0000
     29 C3         -0.0750    5.2980   -6.1910 C.3       1 DXP1        0.0000
     30 HX         -0.3330    4.3850   -6.7740 H         1 DXP1        0.0000
     31 HY          0.9900    5.5330   -6.4180 H         1 DXP1        0.0000
     32 O31        -0.9800    6.3540   -6.5840 O.3       1 DXP1        0.0000
     33 C31        -0.5110    7.5910   -6.4350 C.2       1 DXP1        0.0000
     34 O32         0.6300    7.8860   -6.1290 O.2       1 DXP1        0.0000
     35 C32        -1.6360    8.5810   -6.7420 C.3       1 DXP1        0.0000
     36 H2X        -2.3600    8.5280   -5.9020 H         1 DXP1        0.0000
     37 H2Y        -2.1440    8.2490   -7.6700 H         1 DXP1        0.0000
     38 C23        -4.7170    6.1340   -3.2860 C.3       1 DXP1        0.0000
     39 H3R        -4.7230    6.9300   -4.0670 H         1 DXP1        0.0000
     40 H3S        -4.3760    6.6030   -2.3340 H         1 DXP1        0.0000
     41 C24        -6.1490    5.6160   -3.1080 C.3       1 DXP1        0.0000
     42 H4R        -6.1620    4.8270   -2.3220 H         1 DXP1        0.0000
     43 H4S        -6.4860    5.1510   -4.0610 H         1 DXP1        0.0000
     44 C25        -7.1330    6.7280   -2.7220 C.3       1 DXP1        0.0000
     45 H5R        -7.0760    7.5420   -3.4790 H         1 DXP1        0.0000
     46 H5S        -6.8340    7.1590   -1.7400 H         1 DXP1        0.0000
     47 C26        -8.5810    6.2270   -2.6380 C.3       1 DXP1        0.0000
     48 H6R        -8.6470    5.4170   -1.8780 H         1 DXP1        0.0000
     49 H6S        -8.8690    5.7930   -3.6220 H         1 DXP1        0.0000
     50 C27        -9.5720    7.3430   -2.2760 C.3       1 DXP1        0.0000
     51 H7R        -9.4560    8.1720   -3.0100 H         1 DXP1        0.0000
     52 H7S        -9.3090    7.7400   -1.2690 H         1 DXP1        0.0000
     53 C28       -11.0330    6.8550   -2.2740 C.3       1 DXP1        0.0000
     54 H8R       -11.1050    6.0020   -1.5620 H         1 DXP1        0.0000
     55 H8S       -11.2730    6.4550   -3.2840 H         1 DXP1        0.0000
     56 C29       -11.9840    7.9730   -1.9230 C.2       1 DXP1        0.0000
     57 H9R       -11.8640    8.8850   -2.5300 H         1 DXP1        0.0000
     58 C210      -12.9110    7.9650   -0.9470 C.2       1 DXP1        0.0000
     59 H10R      -13.5240    8.8660   -0.7890 H         1 DXP1        0.0000
     60 C211      -13.2230    6.8150   -0.0200 C.3       1 DXP1        0.0000
     61 H11R      -12.9850    5.8360   -0.4920 H         1 DXP1        0.0000
     62 H11S      -14.3120    6.7960    0.2060 H         1 DXP1        0.0000
     63 C212      -12.4460    6.9110    1.3050 C.3       1 DXP1        0.0000
     64 H12R      -12.6990    7.8640    1.8230 H         1 DXP1        0.0000
     65 H12S      -11.3520    6.9200    1.0930 H         1 DXP1        0.0000
     66 C213      -12.7540    5.7390    2.2470 C.3       1 DXP1        0.0000
     67 H13R      -12.5010    4.7840    1.7330 H         1 DXP1        0.0000
     68 H13S      -13.8450    5.7260    2.4690 H         1 DXP1        0.0000
     69 C214      -11.9740    5.8190    3.5660 C.3       1 DXP1        0.0000
     70 H14R      -12.2290    6.7710    4.0840 H         1 DXP1        0.0000
     71 H14S      -10.8830    5.8360    3.3440 H         1 DXP1        0.0000
     72 C215      -12.2750    4.6420    4.5040 C.3       1 DXP1        0.0000
     73 H15R      -12.0220    3.6930    3.9790 H         1 DXP1        0.0000
     74 H15S      -13.3680    4.6250    4.7180 H         1 DXP1        0.0000
     75 C216      -11.5040    4.7090    5.8250 C.3       1 DXP1        0.0000
     76 H16R      -11.7600    5.6390    6.3770 H         1 DXP1        0.0000
     77 H16S      -10.4090    4.7050    5.6350 H         1 DXP1        0.0000
     78 H16T      -11.7530    3.8380    6.4680 H         1 DXP1        0.0000
     79 C33        -1.1350   10.0340   -6.9080 C.3       1 DXP1        0.0000
     80 H3X        -0.3810   10.0770   -7.7270 H         1 DXP1        0.0000
     81 H3Y        -0.6350   10.3700   -5.9710 H         1 DXP1        0.0000
     82 C34        -2.2820   11.0000   -7.2380 C.3       1 DXP1        0.0000
     83 H4X        -3.0100   11.0020   -6.3970 H         1 DXP1        0.0000
     84 H4Y        -2.8140   10.6320   -8.1450 H         1 DXP1        0.0000
     85 C35        -1.8040   12.4360   -7.4970 C.3       1 DXP1        0.0000
     86 H5X        -1.0690   12.4260   -8.3330 H         1 DXP1        0.0000
     87 H5Y        -1.2830   12.8210   -6.5930 H         1 DXP1        0.0000
     88 C36        -2.9590   13.3820   -7.8600 C.3       1 DXP1        0.0000
     89 H6X        -3.6680   13.4380   -7.0040 H         1 DXP1        0.0000
     90 H6Y        -3.5100   12.9600   -8.7300 H         1 DXP1        0.0000
     91 C37        -2.4840   14.7990   -8.2170 C.3       1 DXP1        0.0000
     92 H7X        -1.7600   14.7260   -9.0600 H         1 DXP1        0.0000
     93 H7Y        -1.9470   15.2320   -7.3430 H         1 DXP1        0.0000
     94 C38        -3.6510   15.7250   -8.6130 C.3       1 DXP1        0.0000
     95 H8X        -4.3500   15.7760   -7.7490 H         1 DXP1        0.0000
     96 H8Y        -4.2100   15.2480   -9.4490 H         1 DXP1        0.0000
     97 C39        -3.1640   17.0880   -9.0410 C.2       1 DXP1        0.0000
     98 H9X        -2.4710   17.0720   -9.8970 H         1 DXP1        0.0000
     99 C310       -3.4710   18.2780   -8.4880 C.2       1 DXP1        0.0000
    100 H10X       -3.0170   19.1860   -8.9140 H         1 DXP1        0.0000
    101 C311       -4.3890   18.5320   -7.3170 C.3       1 DXP1        0.0000
    102 H11X       -5.0230   17.6490   -7.0800 H         1 DXP1        0.0000
    103 H11Y       -5.0880   19.3620   -7.5610 H         1 DXP1        0.0000
    104 C312       -3.6020   18.9100   -6.0490 C.3       1 DXP1        0.0000
    105 H12X       -2.9820   19.8140   -6.2470 H         1 DXP1        0.0000
    106 H12Y       -2.9130   18.0780   -5.7770 H         1 DXP1        0.0000
    107 C313       -4.5220   19.1990   -4.8540 C.3       1 DXP1        0.0000
    108 H13X       -5.1310   18.2930   -4.6360 H         1 DXP1        0.0000
    109 H13Y       -5.2220   20.0210   -5.1230 H         1 DXP1        0.0000
    110 C314       -3.7430   19.5970   -3.5930 C.3       1 DXP1        0.0000
    111 H14X       -3.1330   20.5020   -3.8120 H         1 DXP1        0.0000
    112 H14Y       -3.0420   18.7750   -3.3230 H         1 DXP1        0.0000
    113 C315       -4.6580   19.8880   -2.3970 C.3       1 DXP1        0.0000
    114 H15X       -5.2630   18.9780   -2.1790 H         1 DXP1        0.0000
    115 H15Y       -5.3660   20.7010   -2.6770 H         1 DXP1        0.0000
    116 C316       -3.8920   20.2980   -1.1370 C.3       1 DXP1        0.0000
    117 H16X       -3.3000   21.2190   -1.3250 H         1 DXP1        0.0000
    118 H16Y       -3.1940   19.4910   -0.8270 H         1 DXP1        0.0000
    119 H16Z       -4.5940   20.4960   -0.2990 H         1 DXP1        0.0000
@<TRIPOS>BOND
     1   98   97 1 
     2   96   94 1 
     3   92   91 1 
     4   97   94 1 
     5   97   99 2 
     6  100   99 1 
     7   90   88 1 
     8   94   91 1 
     9   94   95 1 
    10   99  101 1 
    11   86   85 1 
    12   91   88 1 
    13   91   93 1 
    14   84   82 1 
    15   88   85 1 
    16   88   89 1 
    17   80   79 1 
    18   37   35 1 
    19  103  101 1 
    20   85   82 1 
    21   85   87 1 
    22  101  102 1 
    23  101  104 1 
    24   82   79 1 
    25   82   83 1 
    26   79   35 1 
    27   79   81 1 
    28   30   29 1 
    29   35   33 1 
    30   35   36 1 
    31   32   33 1 
    32   32   29 1 
    33   33   34 2 
    34   31   29 1 
    35  105  104 1 
    36   29   21 1 
    37  104  106 1 
    38  104  107 1 
    39  109  107 1 
    40   19   18 1 
    41  107  108 1 
    42  107  110 1 
    43   21   23 1 
    44   21   18 1 
    45   21   22 1 
    46   20   18 1 
    47   28   26 1 
    48   23   24 1 
    49   18   17 1 
    50   39   38 1 
    51   43   41 1 
    52   24   25 2 
    53   24   26 1 
    54  111  110 1 
    55   26   38 1 
    56   26   27 1 
    57   49   47 1 
    58  110  112 1 
    59  110  113 1 
    60   45   44 1 
    61   38   41 1 
    62   38   40 1 
    63   55   53 1 
    64   41   44 1 
    65   41   42 1 
    66   51   50 1 
    67   15   13 2 
    68   17   13 1 
    69   44   47 1 
    70   44   46 1 
    71   14   13 1 
    72  115  113 1 
    73   47   50 1 
    74   47   48 1 
    75   57   56 1 
    76   13   16 1 
    77  113  114 1 
    78  113  116 1 
    79   50   53 1 
    80   50   52 1 
    81   53   56 1 
    82   53   54 1 
    83   56   58 2 
    84    9    8 1 
    85  117  116 1 
    86  116  118 1 
    87  116  119 1 
    88    8    6 1 
    89   58   59 1 
    90   58   60 1 
    91   16   10 1 
    92    2    1 1 
    93   61   60 1 
    94   11   10 1 
    95   10    6 1 
    96   10   12 1 
    97   60   62 1 
    98   60   63 1 
    99    6    1 1 
   100    6    7 1 
   101    1    3 1 
   102    1    4 1 
   103    5    4 1 
   104   65   63 1 
   105   63   64 1 
   106   63   66 1 
   107   67   66 1 
   108   66   68 1 
   109   66   69 1 
   110   71   69 1 
   111   69   70 1 
   112   69   72 1 
   113   73   72 1 
   114   72   74 1 
   115   72   75 1 
   116   77   75 1 
   117   75   76 1 
   118   75   78 1 
