@<TRIPOS>MOLECULE
C:\Users\Praveer\PycharmProjects\pdb_to_mol2_converter\data\pdb\dxps.pdb
  119   118     0     0     0
SMALL
GASTEIGER

@<TRIPOS>ATOM
      1 N           0.0440   -0.3030   -0.2160 N.4       1 DXP1        0.0000
      2 HN1        -0.4100    0.1590    0.6230 H         1 DXP1        0.0000
      3 HN2        -0.1580   -1.3160   -0.3020 H         1 DXP1        0.0000
      4 HN3        -0.2510    0.1780   -1.0880 H         1 DXP1        0.0000
      5 C12         1.5250   -0.1190   -0.1230 C.3       1 DXP1        0.0000
      6 H12A        1.8830   -0.6470    0.7490 H         1 DXP1        0.0000
      7 C13         2.2180   -0.7500   -1.3510 C.2       1 DXP1        0.0000
      8 O13A        1.5010   -1.3760   -2.1830 O.co2     1 DXP1        0.0000
      9 O13B        3.4720   -0.7990   -1.3400 O.co2     1 DXP1        0.0000
     10 C11         1.8800    1.4010    0.0010 C.3       1 DXP1        0.0000
     11 H11A        1.4950    1.9640   -0.8820 H         1 DXP1        0.0000
     12 H11B        2.9940    1.4780   -0.0400 H         1 DXP1        0.0000
     13 P          -0.0360    2.4860    1.4480 P.3       1 DXP1        0.0000
     14 O13        -0.4420    3.2630    0.2620 O.2       1 DXP1        0.0000
     15 O14        -0.8410    1.2700    1.7250 O.3       1 DXP1        0.0000
     16 O12         1.4470    1.9800    1.2420 O.3       1 DXP1        0.0000
     17 O11         0.0300    3.4160    2.7260 O.3       1 DXP1        0.0000
     18 C1         -1.0930    4.2770    2.9580 C.3       1 DXP1        0.0000
     19 HA         -2.0460    3.6940    2.9680 H         1 DXP1        0.0000
     20 HB         -1.1580    5.0590    2.1650 H         1 DXP1        0.0000
     21 C2         -0.9760    4.9890    4.3310 C.3       1 DXP1        0.0000
     22 HS         -0.1050    5.6840    4.2540 H         1 DXP1        0.0000
     23 O21        -0.7820    3.9890    5.3490 O.3       1 DXP1        0.0000
     24 C21        -0.0370    4.3650    6.3690 C.2       1 DXP1        0.0000
     25 O22         0.4860    5.4550    6.5230 O.2       1 DXP1        0.0000
     26 C22         0.0490    3.2050    7.3600 C.3       1 DXP1        0.0000
     27 H2R         0.5240    2.3470    6.8420 H         1 DXP1        0.0000
     28 H2S        -0.9870    2.9240    7.6390 H         1 DXP1        0.0000
     29 C3         -2.2600    5.8140    4.6360 C.3       1 DXP1        0.0000
     30 HX         -3.1090    5.0950    4.6230 H         1 DXP1        0.0000
     31 HY         -2.4430    6.5400    3.8120 H         1 DXP1        0.0000
     32 O31        -2.2240    6.4410    5.9360 O.3       1 DXP1        0.0000
     33 C31        -1.6460    7.6390    5.9700 C.2       1 DXP1        0.0000
     34 O32        -1.2750    8.2740    4.9980 O.2       1 DXP1        0.0000
     35 C32        -1.5470    8.0950    7.4260 C.3       1 DXP1        0.0000
     36 H2X        -0.7850    7.4580    7.9220 H         1 DXP1        0.0000
     37 H2Y        -2.5290    7.9160    7.9090 H         1 DXP1        0.0000
     38 C23         0.8510    3.5760    8.6260 C.3       1 DXP1        0.0000
     39 H3R         0.4180    4.4930    9.0890 H         1 DXP1        0.0000
     40 H3S         1.9060    3.8070    8.3500 H         1 DXP1        0.0000
     41 C24         0.8380    2.4530    9.6710 C.3       1 DXP1        0.0000
     42 H4R         1.2740    1.5290    9.2280 H         1 DXP1        0.0000
     43 H4S        -0.2170    2.2300    9.9490 H         1 DXP1        0.0000
     44 C25         1.6210    2.8260   10.9370 C.3       1 DXP1        0.0000
     45 H5R         1.2180    3.7820   11.3400 H         1 DXP1        0.0000
     46 H5S         2.6880    2.9950   10.6700 H         1 DXP1        0.0000
     47 C26         1.5340    1.7530   12.0300 C.3       1 DXP1        0.0000
     48 H6R         1.9440    0.7940   11.6410 H         1 DXP1        0.0000
     49 H6S         0.4640    1.5840   12.2860 H         1 DXP1        0.0000
     50 C27         2.2970    2.1520   13.3010 C.3       1 DXP1        0.0000
     51 H7R         1.9190    3.1410   13.6450 H         1 DXP1        0.0000
     52 H7S         3.3750    2.2690   13.0460 H         1 DXP1        0.0000
     53 C28         2.1420    1.1180   14.4310 C.3       1 DXP1        0.0000
     54 H8R         2.4810    0.1330   14.0400 H         1 DXP1        0.0000
     55 H8S         1.0600    1.0170   14.6720 H         1 DXP1        0.0000
     56 C29         2.9080    1.5380   15.6630 C.2       1 DXP1        0.0000
     57 H9R         2.6840    2.5560   16.0170 H         1 DXP1        0.0000
     58 C210        3.8340    0.8140   16.3190 C.2       1 DXP1        0.0000
     59 H10R        4.3310    1.2590   17.1950 H         1 DXP1        0.0000
     60 C211        4.2740   -0.5910   15.9870 C.3       1 DXP1        0.0000
     61 H11R        3.4700   -1.1570   15.4660 H         1 DXP1        0.0000
     62 H11S        4.4920   -1.1500   16.9240 H         1 DXP1        0.0000
     63 C212        5.5300   -0.6100   15.0980 C.3       1 DXP1        0.0000
     64 H12R        6.3640   -0.0810   15.6110 H         1 DXP1        0.0000
     65 H12S        5.3170   -0.0670   14.1480 H         1 DXP1        0.0000
     66 C213        5.9820   -2.0370   14.7580 C.3       1 DXP1        0.0000
     67 H13R        5.1490   -2.5680   14.2450 H         1 DXP1        0.0000
     68 H13S        6.2030   -2.5840   15.7010 H         1 DXP1        0.0000
     69 C214        7.2230   -2.0660   13.8560 C.3       1 DXP1        0.0000
     70 H14R        8.0610   -1.5430   14.3700 H         1 DXP1        0.0000
     71 H14S        7.0040   -1.5090   12.9170 H         1 DXP1        0.0000
     72 C215        7.6630   -3.4920   13.5010 C.3       1 DXP1        0.0000
     73 H15R        6.8170   -4.0110   12.9940 H         1 DXP1        0.0000
     74 H15S        7.8770   -4.0460   14.4440 H         1 DXP1        0.0000
     75 C216        8.8970   -3.5390   12.5970 C.3       1 DXP1        0.0000
     76 H16R        9.7620   -3.0480   13.0940 H         1 DXP1        0.0000
     77 H16S        8.6970   -3.0110   11.6400 H         1 DXP1        0.0000
     78 H16T        9.1740   -4.5910   12.3680 H         1 DXP1        0.0000
     79 C33        -1.1570    9.5840    7.5670 C.3       1 DXP1        0.0000
     80 H3X        -1.9100   10.2180    7.0450 H         1 DXP1        0.0000
     81 H3Y        -0.1710    9.7630    7.0800 H         1 DXP1        0.0000
     82 C34        -1.0760   10.0160    9.0380 C.3       1 DXP1        0.0000
     83 H4X        -0.2790    9.4300    9.5480 H         1 DXP1        0.0000
     84 H4Y        -2.0430    9.7780    9.5370 H         1 DXP1        0.0000
     85 C35        -0.7910   11.5150    9.2120 C.3       1 DXP1        0.0000
     86 H5X        -1.5850   12.0950    8.6900 H         1 DXP1        0.0000
     87 H5Y         0.1820   11.7660    8.7340 H         1 DXP1        0.0000
     88 C36        -0.7560   11.9360   10.6880 C.3       1 DXP1        0.0000
     89 H6X         0.0770   11.4060   11.2020 H         1 DXP1        0.0000
     90 H6Y        -1.7070   11.6220   11.1750 H         1 DXP1        0.0000
     91 C37        -0.5840   13.4510   10.8740 C.3       1 DXP1        0.0000
     92 H7X        -1.4080   13.9690   10.3330 H         1 DXP1        0.0000
     93 H7Y         0.3780   13.7640   10.4100 H         1 DXP1        0.0000
     94 C38        -0.5990   13.8620   12.3590 C.3       1 DXP1        0.0000
     95 H8X         0.2240   13.3150   12.8700 H         1 DXP1        0.0000
     96 H8Y        -1.5500   13.5060   12.8130 H         1 DXP1        0.0000
     97 C39        -0.4850   15.3590   12.5270 C.2       1 DXP1        0.0000
     98 H9X        -1.2960   15.9300   12.0480 H         1 DXP1        0.0000
     99 C310        0.4850   16.0380   13.1690 C.2       1 DXP1        0.0000
    100 H10X        0.4290   17.1370   13.1900 H         1 DXP1        0.0000
    101 C311        1.6830   15.4630   13.8860 C.3       1 DXP1        0.0000
    102 H11X        1.5810   14.3710   14.0670 H         1 DXP1        0.0000
    103 H11Y        1.7840   15.9380   14.8880 H         1 DXP1        0.0000
    104 C312        2.9850   15.7000   13.1000 C.3       1 DXP1        0.0000
    105 H12X        3.1260   16.7910   12.9250 H         1 DXP1        0.0000
    106 H12Y        2.9120   15.2030   12.1050 H         1 DXP1        0.0000
    107 C313        4.2190   15.1570   13.8340 C.3       1 DXP1        0.0000
    108 H13X        4.0960   14.0620   13.9930 H         1 DXP1        0.0000
    109 H13Y        4.2890   15.6400   14.8340 H         1 DXP1        0.0000
    110 C314        5.5230   15.4100   13.0650 C.3       1 DXP1        0.0000
    111 H14X        5.6450   16.5050   12.9050 H         1 DXP1        0.0000
    112 H14Y        5.4560   14.9290   12.0630 H         1 DXP1        0.0000
    113 C315        6.7580   14.8710   13.7980 C.3       1 DXP1        0.0000
    114 H15X        6.6310   13.7760   13.9560 H         1 DXP1        0.0000
    115 H15Y        6.8140   15.3480   14.8030 H         1 DXP1        0.0000
    116 C316        8.0680   15.1240   13.0470 C.3       1 DXP1        0.0000
    117 H16X        8.2280   16.2140   12.9020 H         1 DXP1        0.0000
    118 H16Y        8.0420   14.6380   12.0480 H         1 DXP1        0.0000
    119 H16Z        8.9300   14.7150   13.6150 H         1 DXP1        0.0000
@<TRIPOS>BOND
     1    8    7 ar
     2    7    9 ar
     3    7    5 1 
     4    4    1 1 
     5   11   10 1 
     6    3    1 1 
     7    1    5 1 
     8    1    2 1 
     9    5   10 1 
    10    5    6 1 
    11   12   10 1 
    12   10   16 1 
    13   14   13 2 
    14   16   13 1 
    15   13   15 1 
    16   13   17 1 
    17   20   18 1 
    18   17   18 1 
    19   18   19 1 
    20   18   21 1 
    21   31   29 1 
    22   22   21 1 
    23   21   29 1 
    24   21   23 1 
    25   30   29 1 
    26   29   32 1 
    27   34   33 2 
    28   23   24 1 
    29   32   33 1 
    30   33   35 1 
    31   24   25 2 
    32   24   26 1 
    33   27   26 1 
    34   80   79 1 
    35   81   79 1 
    36   26   28 1 
    37   26   38 1 
    38   35   79 1 
    39   35   37 1 
    40   35   36 1 
    41   79   82 1 
    42   40   38 1 
    43   38   39 1 
    44   38   41 1 
    45   86   85 1 
    46   87   85 1 
    47   82   85 1 
    48   82   84 1 
    49   82   83 1 
    50   85   88 1 
    51   42   41 1 
    52   41   43 1 
    53   41   44 1 
    54   92   91 1 
    55   93   91 1 
    56   46   44 1 
    57   88   91 1 
    58   88   90 1 
    59   88   89 1 
    60   91   94 1 
    61   44   45 1 
    62   44   47 1 
    63   77   75 1 
    64   48   47 1 
    65   47   49 1 
    66   47   50 1 
    67  118  116 1 
    68   98   97 1 
    69  112  110 1 
    70  106  104 1 
    71   94   97 1 
    72   94   96 1 
    73   94   95 1 
    74   78   75 1 
    75   97   99 2 
    76   75   76 1 
    77   75   72 1 
    78  117  116 1 
    79  111  110 1 
    80   71   69 1 
    81  105  104 1 
    82   73   72 1 
    83   52   50 1 
    84  116  119 1 
    85  116  113 1 
    86  110  113 1 
    87  110  107 1 
    88  104  107 1 
    89  104  101 1 
    90   99  100 1 
    91   99  101 1 
    92   50   51 1 
    93   50   53 1 
    94   72   69 1 
    95   72   74 1 
    96  113  114 1 
    97  113  115 1 
    98  107  108 1 
    99  107  109 1 
   100   69   70 1 
   101   69   66 1 
   102  101  102 1 
   103  101  103 1 
   104   54   53 1 
   105   65   63 1 
   106   67   66 1 
   107   53   55 1 
   108   53   56 1 
   109   66   63 1 
   110   66   68 1 
   111   63   64 1 
   112   63   60 1 
   113   61   60 1 
   114   56   57 1 
   115   56   58 2 
   116   60   58 1 
   117   60   62 1 
   118   58   59 1 
