@<TRIPOS>MOLECULE
C:\Users\Praveer\PycharmProjects\pdb_to_mol2_converter\data\pdb\dypc.pdb
  126   125     0     0     0
SMALL
GASTEIGER

@<TRIPOS>ATOM
      1 N           1.4770   -0.0220   -0.0410 N.4       1 DYP1        0.0000
      2 C12         2.1900    1.3150    0.0490 C.3       1 DYP1        0.0000
      3 H12A        2.1320    1.8820   -0.8700 H         1 DYP1        0.0000
      4 H12B        3.2610    1.1110    0.1720 H         1 DYP1        0.0000
      5 C13        -0.0040    0.1680   -0.1190 C.3       1 DYP1        0.0000
      6 H13A       -0.2740    0.7360   -1.0000 H         1 DYP1        0.0000
      7 H13B       -0.3460    0.7190    0.7510 H         1 DYP1        0.0000
      8 H13C       -0.5160   -0.7840   -0.1390 H         1 DYP1        0.0000
      9 C14         1.9890   -0.7610   -1.2400 C.3       1 DYP1        0.0000
     10 H14A        3.0630   -0.9090   -1.1460 H         1 DYP1        0.0000
     11 H14B        1.8150   -0.2000   -2.1490 H         1 DYP1        0.0000
     12 H14C        1.5240   -1.7320   -1.3290 H         1 DYP1        0.0000
     13 C15         1.8350   -0.8100    1.1910 C.3       1 DYP1        0.0000
     14 H15A        1.4490   -0.3250    2.0830 H         1 DYP1        0.0000
     15 H15B        2.9220   -0.7940    1.3330 H         1 DYP1        0.0000
     16 H15C        1.4920   -1.8290    1.1520 H         1 DYP1        0.0000
     17 C11         1.8170    2.2070    1.2430 C.3       1 DYP1        0.0000
     18 H11A        1.2770    1.6630    2.0510 H         1 DYP1        0.0000
     19 H11B        1.1420    3.0220    0.8970 H         1 DYP1        0.0000
     20 P           4.0450    1.8700    2.5500 P.3       1 DYP1        0.0000
     21 O13         3.4690    1.5990    3.8810 O.3       1 DYP1        0.0000
     22 O14         4.3860    0.6990    1.7090 O.2       1 DYP1        0.0000
     23 O12         3.0160    2.7770    1.7410 O.3       1 DYP1        0.0000
     24 O11         5.3100    2.8040    2.6630 O.3       1 DYP1        0.0000
     25 C1          5.3050    4.1870    2.3170 C.3       1 DYP1        0.0000
     26 HA          6.0170    4.6930    3.0070 H         1 DYP1        0.0000
     27 HB          4.3190    4.6760    2.4800 H         1 DYP1        0.0000
     28 C2          5.8040    4.4350    0.8620 C.3       1 DYP1        0.0000
     29 HS          6.2940    3.4920    0.5210 H         1 DYP1        0.0000
     30 O21         6.7420    5.5310    0.9020 O.3       1 DYP1        0.0000
     31 C21         7.6690    5.5340   -0.0410 C.2       1 DYP1        0.0000
     32 O22         7.8530    4.6700   -0.8800 O.2       1 DYP1        0.0000
     33 C22         8.4850    6.8240    0.0970 C.3       1 DYP1        0.0000
     34 H2R         8.9460    6.8270    1.1060 H         1 DYP1        0.0000
     35 H2S         7.7790    7.6770    0.0300 H         1 DYP1        0.0000
     36 C3          4.6270    4.7670   -0.1060 C.3       1 DYP1        0.0000
     37 HX          4.1720    5.7160    0.2540 H         1 DYP1        0.0000
     38 HY          3.8400    3.9910   -0.0200 H         1 DYP1        0.0000
     39 O31         5.0680    4.9560   -1.4670 O.3       1 DYP1        0.0000
     40 C31         5.0110    3.8850   -2.2530 C.2       1 DYP1        0.0000
     41 O32         4.4480    2.8350   -1.9890 O.2       1 DYP1        0.0000
     42 C32         5.7140    4.2140   -3.5710 C.3       1 DYP1        0.0000
     43 H2X         6.6000    4.8430   -3.3420 H         1 DYP1        0.0000
     44 H2Y         5.0080    4.8060   -4.1870 H         1 DYP1        0.0000
     45 C23         9.5820    6.9720   -0.9840 C.3       1 DYP1        0.0000
     46 H3R         9.1180    6.9170   -1.9960 H         1 DYP1        0.0000
     47 H3S        10.3060    6.1300   -0.9010 H         1 DYP1        0.0000
     48 C24        10.3420    8.3020   -0.8640 C.3       1 DYP1        0.0000
     49 H4R        10.8090    8.3680    0.1440 H         1 DYP1        0.0000
     50 H4S         9.6180    9.1420   -0.9570 H         1 DYP1        0.0000
     51 C25        11.4360    8.4700   -1.9310 C.3       1 DYP1        0.0000
     52 H5R        10.9780    8.3640   -2.9400 H         1 DYP1        0.0000
     53 H5S        12.1870    7.6570   -1.8140 H         1 DYP1        0.0000
     54 C26        12.1460    9.8300   -1.8470 C.3       1 DYP1        0.0000
     55 H6R        12.6050    9.9430   -0.8390 H         1 DYP1        0.0000
     56 H6S        11.3930   10.6400   -1.9690 H         1 DYP1        0.0000
     57 C27        13.2390   10.0000   -2.9150 C.3       1 DYP1        0.0000
     58 H7R        12.7820    9.8490   -3.9190 H         1 DYP1        0.0000
     59 H7S        14.0070    9.2080   -2.7680 H         1 DYP1        0.0000
     60 C28        13.9130   11.3850   -2.8580 C.3       1 DYP1        0.0000
     61 H8R        14.3200   11.5230   -1.8310 H         1 DYP1        0.0000
     62 H8S        13.1330   12.1650   -3.0030 H         1 DYP1        0.0000
     63 C29        14.9820   11.5250   -3.9160 C.2       1 DYP1        0.0000
     64 H9R        14.6280   11.3750   -4.9480 H         1 DYP1        0.0000
     65 C210       16.2890   11.7810   -3.7130 C.2       1 DYP1        0.0000
     66 H10R       16.9600   11.8360   -4.5850 H         1 DYP1        0.0000
     67 C211       16.9600   12.0140   -2.3810 C.3       1 DYP1        0.0000
     68 H11R       16.2640   12.4920   -1.6560 H         1 DYP1        0.0000
     69 H11S       17.8130   12.7170   -2.5050 H         1 DYP1        0.0000
     70 C212       17.4840   10.7090   -1.7570 C.3       1 DYP1        0.0000
     71 H12R       18.2130   10.2270   -2.4470 H         1 DYP1        0.0000
     72 H12S       16.6350   10.0020   -1.6120 H         1 DYP1        0.0000
     73 C213       18.1660   10.9430   -0.4010 C.3       1 DYP1        0.0000
     74 H13R       17.4420   11.4310    0.2890 H         1 DYP1        0.0000
     75 H13S       19.0240   11.6380   -0.5390 H         1 DYP1        0.0000
     76 C214       18.6690    9.6430    0.2410 C.3       1 DYP1        0.0000
     77 H14R       19.3940    9.1520   -0.4470 H         1 DYP1        0.0000
     78 H14S       17.8100    8.9480    0.3780 H         1 DYP1        0.0000
     79 C215       19.3440    9.8770    1.5990 C.3       1 DYP1        0.0000
     80 H15R       18.6170   10.3770    2.2780 H         1 DYP1        0.0000
     81 H15S       20.2020   10.5730    1.4570 H         1 DYP1        0.0000
     82 C216       19.8450    8.5890    2.2580 C.3       1 DYP1        0.0000
     83 H16R       20.5900    8.0830    1.6060 H         1 DYP1        0.0000
     84 H16S       18.9990    7.8890    2.4320 H         1 DYP1        0.0000
     85 H16T       20.3250    8.8110    3.2350 H         1 DYP1        0.0000
     86 C33         6.1680    2.9590   -4.3500 C.3       1 DYP1        0.0000
     87 H3X         5.2990    2.2860   -4.5280 H         1 DYP1        0.0000
     88 H3Y         6.9150    2.3960   -3.7440 H         1 DYP1        0.0000
     89 C34         6.7960    3.3260   -5.7020 C.3       1 DYP1        0.0000
     90 H4X         7.6710    3.9930   -5.5300 H         1 DYP1        0.0000
     91 H4Y         6.0510    3.8940   -6.3030 H         1 DYP1        0.0000
     92 C35         7.2510    2.1000   -6.5070 C.3       1 DYP1        0.0000
     93 H5X         6.3840    1.4170   -6.6470 H         1 DYP1        0.0000
     94 H5Y         8.0280    1.5480   -5.9320 H         1 DYP1        0.0000
     95 C36         7.8140    2.4800   -7.8850 C.3       1 DYP1        0.0000
     96 H6X         8.7130    3.1220   -7.7500 H         1 DYP1        0.0000
     97 H6Y         7.0510    3.0770   -8.4330 H         1 DYP1        0.0000
     98 C37         8.1880    1.2570   -8.7360 C.3       1 DYP1        0.0000
     99 H7X         7.2860    0.6120   -8.8380 H         1 DYP1        0.0000
    100 H7Y         8.9690    0.6690   -8.2020 H         1 DYP1        0.0000
    101 C38         8.7050    1.6520  -10.1330 C.3       1 DYP1        0.0000
    102 H8X         9.6060    2.2880   -9.9930 H         1 DYP1        0.0000
    103 H8Y         7.9360    2.2900  -10.6240 H         1 DYP1        0.0000
    104 C39         8.9810    0.4400  -10.9890 C.2       1 DYP1        0.0000
    105 H9X         8.1080   -0.2140  -11.1410 H         1 DYP1        0.0000
    106 C310       10.1520    0.0850  -11.5530 C.2       1 DYP1        0.0000
    107 H10X       10.1890   -0.8440  -12.1430 H         1 DYP1        0.0000
    108 C311       11.4660    0.8240  -11.4730 C.3       1 DYP1        0.0000
    109 H11X       11.3410    1.8650  -11.1020 H         1 DYP1        0.0000
    110 H11Y       11.9130    0.9050  -12.4890 H         1 DYP1        0.0000
    111 C312       12.4680    0.1040  -10.5530 C.3       1 DYP1        0.0000
    112 H12X       12.6380   -0.9330  -10.9210 H         1 DYP1        0.0000
    113 H12Y       12.0430    0.0340   -9.5260 H         1 DYP1        0.0000
    114 C313       13.8200    0.8260  -10.4790 C.3       1 DYP1        0.0000
    115 H13X       13.6600    1.8600  -10.0970 H         1 DYP1        0.0000
    116 H13Y       14.2470    0.9060  -11.5040 H         1 DYP1        0.0000
    117 C314       14.8260    0.1040   -9.5720 C.3       1 DYP1        0.0000
    118 H14X       14.9850   -0.9290   -9.9540 H         1 DYP1        0.0000
    119 H14Y       14.3990    0.0230   -8.5470 H         1 DYP1        0.0000
    120 C315       16.1790    0.8230   -9.4960 C.3       1 DYP1        0.0000
    121 H15X       16.0150    1.8560   -9.1120 H         1 DYP1        0.0000
    122 H15Y       16.5960    0.9120  -10.5250 H         1 DYP1        0.0000
    123 C316       17.1950    0.1080   -8.6010 C.3       1 DYP1        0.0000
    124 H16X       17.3930   -0.9170   -8.9820 H         1 DYP1        0.0000
    125 H16Y       16.8090    0.0270   -7.5620 H         1 DYP1        0.0000
    126 H16Z       18.1550    0.6660   -8.5770 H         1 DYP1        0.0000
@<TRIPOS>BOND
     1  110  108 1 
     2  107  106 1 
     3  106  108 1 
     4  106  104 2 
     5  116  114 1 
     6  108  109 1 
     7  108  111 1 
     8  105  104 1 
     9  104  101 1 
    10  112  111 1 
    11  103  101 1 
    12  111  114 1 
    13  111  113 1 
    14  122  120 1 
    15  114  115 1 
    16  114  117 1 
    17  101  102 1 
    18  101   98 1 
    19  118  117 1 
    20  117  120 1 
    21  117  119 1 
    22  120  121 1 
    23  120  123 1 
    24  124  123 1 
    25   99   98 1 
    26   98  100 1 
    27   98   95 1 
    28  123  126 1 
    29  123  125 1 
    30   97   95 1 
    31   95   96 1 
    32   95   92 1 
    33   93   92 1 
    34   92   94 1 
    35   92   89 1 
    36   91   89 1 
    37   89   90 1 
    38   89   86 1 
    39   64   63 1 
    40   66   65 1 
    41   87   86 1 
    42   86   88 1 
    43   86   42 1 
    44   44   42 1 
    45   58   57 1 
    46   63   65 2 
    47   63   60 1 
    48   65   67 1 
    49   42   43 1 
    50   42   40 1 
    51   62   60 1 
    52   52   51 1 
    53   57   60 1 
    54   57   59 1 
    55   57   54 1 
    56   60   61 1 
    57   69   67 1 
    58   71   70 1 
    59   67   70 1 
    60   67   68 1 
    61   40   41 2 
    62   40   39 1 
    63   11    9 1 
    64   46   45 1 
    65   56   54 1 
    66   51   54 1 
    67   51   53 1 
    68   51   48 1 
    69   54   55 1 
    70   70   72 1 
    71   70   73 1 
    72   39   36 1 
    73   12    9 1 
    74    9   10 1 
    75    9    1 1 
    76    6    5 1 
    77   45   47 1 
    78   45   48 1 
    79   45   33 1 
    80   50   48 1 
    81   32   31 2 
    82    3    2 1 
    83   48   49 1 
    84   75   73 1 
    85   77   76 1 
    86   73   76 1 
    87   73   74 1 
    88    8    5 1 
    89    5    1 1 
    90    5    7 1 
    91   36   38 1 
    92   36   37 1 
    93   36   28 1 
    94   31   33 1 
    95   31   30 1 
    96    1    2 1 
    97    1   13 1 
    98   35   33 1 
    99    2    4 1 
   100    2   17 1 
   101   33   34 1 
   102   76   78 1 
   103   76   79 1 
   104   29   28 1 
   105   28   30 1 
   106   28   25 1 
   107   19   17 1 
   108   16   13 1 
   109   13   15 1 
   110   13   14 1 
   111   17   23 1 
   112   17   18 1 
   113   81   79 1 
   114   79   82 1 
   115   79   80 1 
   116   83   82 1 
   117   22   20 2 
   118   23   20 1 
   119   82   84 1 
   120   82   85 1 
   121   25   27 1 
   122   25   24 1 
   123   25   26 1 
   124   20   24 1 
   125   20   21 1 
