@<TRIPOS>MOLECULE
C:\Users\Praveer\PycharmProjects\pdb_to_mol2_converter\data\pdb\dype.pdb
  117   116     0     0     0
SMALL
GASTEIGER

@<TRIPOS>ATOM
      1 N          -0.0010   -0.0320    0.1650 N.4       1 DYP1        0.0000
      2 HN1        -0.1270   -0.4810    1.1100 H         1 DYP1        0.0000
      3 HN2        -0.5850   -0.5130   -0.5380 H         1 DYP1        0.0000
      4 HN3        -0.3280    0.9760    0.2650 H         1 DYP1        0.0000
      5 C12         1.4670    0.0160   -0.1810 C.3       1 DYP1        0.0000
      6 H12A        1.5910   -0.3450   -1.2220 H         1 DYP1        0.0000
      7 H12B        1.9920   -0.6740    0.5100 H         1 DYP1        0.0000
      8 C11         2.0440    1.4420   -0.0390 C.3       1 DYP1        0.0000
      9 H11A        1.6720    2.0860   -0.8750 H         1 DYP1        0.0000
     10 H11B        3.1500    1.3850   -0.1660 H         1 DYP1        0.0000
     11 P           0.5740    3.0330    1.4310 P.3       1 DYP1        0.0000
     12 O13         1.0750    4.3990    1.2210 O.3       1 DYP1        0.0000
     13 O14        -0.5080    2.5180    0.5550 O.2       1 DYP1        0.0000
     14 O11         0.1520    2.7900    2.9270 O.3       1 DYP1        0.0000
     15 O12         1.7690    1.9990    1.2510 O.3       1 DYP1        0.0000
     16 C1          1.0710    2.5560    3.9920 C.3       1 DYP1        0.0000
     17 HA          0.8390    3.2880    4.7980 H         1 DYP1        0.0000
     18 HB          2.1380    2.7120    3.7110 H         1 DYP1        0.0000
     19 C2          0.8650    1.1320    4.5690 C.3       1 DYP1        0.0000
     20 HS         -0.2040    0.8760    4.3680 H         1 DYP1        0.0000
     21 O21         1.1410    1.1660    5.9820 O.3       1 DYP1        0.0000
     22 C21         0.4830    0.2640    6.6970 C.2       1 DYP1        0.0000
     23 O22        -0.3840   -0.4840    6.2840 O.2       1 DYP1        0.0000
     24 C22         1.0040    0.3020    8.1330 C.3       1 DYP1        0.0000
     25 H2R         0.8680    1.3300    8.5240 H         1 DYP1        0.0000
     26 H2S         2.0900    0.0740    8.1020 H         1 DYP1        0.0000
     27 C3          1.7760    0.0830    3.8650 C.3       1 DYP1        0.0000
     28 HX          2.8230    0.3020    4.1730 H         1 DYP1        0.0000
     29 HY          1.7370    0.2330    2.7680 H         1 DYP1        0.0000
     30 O31         1.4510   -1.2720    4.2400 O.3       1 DYP1        0.0000
     31 C31         0.4630   -1.8310    3.5490 C.2       1 DYP1        0.0000
     32 O32        -0.0260   -1.3770    2.5240 O.2       1 DYP1        0.0000
     33 C32         0.0830   -3.1540    4.2110 C.3       1 DYP1        0.0000
     34 H2X         0.0650   -2.9980    5.3110 H         1 DYP1        0.0000
     35 H2Y         0.8750   -3.8950    3.9750 H         1 DYP1        0.0000
     36 C23         0.2840   -0.7140    9.0450 C.3       1 DYP1        0.0000
     37 H3R         0.3640   -1.7370    8.6100 H         1 DYP1        0.0000
     38 H3S        -0.7990   -0.4610    9.1080 H         1 DYP1        0.0000
     39 C24         0.8740   -0.7430   10.4610 C.3       1 DYP1        0.0000
     40 H4R         0.8120    0.2750   10.9080 H         1 DYP1        0.0000
     41 H4S         1.9510   -1.0210   10.4020 H         1 DYP1        0.0000
     42 C25         0.1500   -1.7370   11.3780 C.3       1 DYP1        0.0000
     43 H5R         0.1780   -2.7480   10.9130 H         1 DYP1        0.0000
     44 H5S        -0.9180   -1.4380   11.4710 H         1 DYP1        0.0000
     45 C26         0.7740   -1.8170   12.7780 C.3       1 DYP1        0.0000
     46 H6R         0.7550   -0.8070   13.2460 H         1 DYP1        0.0000
     47 H6S         1.8390   -2.1270   12.6840 H         1 DYP1        0.0000
     48 C27         0.0410   -2.8090   13.6920 C.3       1 DYP1        0.0000
     49 H7R         0.0320   -3.8070   13.1980 H         1 DYP1        0.0000
     50 H7S        -1.0160   -2.4740   13.8040 H         1 DYP1        0.0000
     51 C28         0.6950   -2.9230   15.0810 C.3       1 DYP1        0.0000
     52 H8R         0.7280   -1.9020   15.5230 H         1 DYP1        0.0000
     53 H8S         1.7490   -3.2520   14.9500 H         1 DYP1        0.0000
     54 C29        -0.0460   -3.9010   15.9610 C.2       1 DYP1        0.0000
     55 H9R        -0.1270   -4.9190   15.5490 H         1 DYP1        0.0000
     56 C210       -0.6210   -3.6370   17.1500 C.2       1 DYP1        0.0000
     57 H10R       -1.1480   -4.4480   17.6760 H         1 DYP1        0.0000
     58 C211       -0.6170   -2.3100   17.8690 C.3       1 DYP1        0.0000
     59 H11R        0.3050   -1.7290   17.6430 H         1 DYP1        0.0000
     60 H11S       -0.6190   -2.4750   18.9690 H         1 DYP1        0.0000
     61 C212       -1.8340   -1.4450   17.4960 C.3       1 DYP1        0.0000
     62 H12R       -2.7730   -1.9880   17.7460 H         1 DYP1        0.0000
     63 H12S       -1.8320   -1.2580   16.3980 H         1 DYP1        0.0000
     64 C213       -1.8360   -0.0930   18.2240 C.3       1 DYP1        0.0000
     65 H13R       -0.8950    0.4500   17.9830 H         1 DYP1        0.0000
     66 H13S       -1.8530   -0.2700   19.3230 H         1 DYP1        0.0000
     67 C214       -3.0340    0.7850   17.8380 C.3       1 DYP1        0.0000
     68 H14R       -3.9770    0.2450   18.0790 H         1 DYP1        0.0000
     69 H14S       -3.0170    0.9610   16.7390 H         1 DYP1        0.0000
     70 C215       -3.0320    2.1380   18.5610 C.3       1 DYP1        0.0000
     71 H15R       -2.0820    2.6690   18.3250 H         1 DYP1        0.0000
     72 H15S       -3.0490    1.9570   19.6600 H         1 DYP1        0.0000
     73 C216       -4.2150    3.0320   18.1790 C.3       1 DYP1        0.0000
     74 H16R       -5.1760    2.5310   18.4270 H         1 DYP1        0.0000
     75 H16S       -4.2040    3.2460   17.0890 H         1 DYP1        0.0000
     76 H16T       -4.1690    3.9970   18.7280 H         1 DYP1        0.0000
     77 C33        -1.2920   -3.6860    3.7500 C.3       1 DYP1        0.0000
     78 H3X        -1.3020   -3.8170    2.6450 H         1 DYP1        0.0000
     79 H3Y        -2.0860   -2.9500    4.0140 H         1 DYP1        0.0000
     80 C34        -1.6290   -5.0300    4.4080 C.3       1 DYP1        0.0000
     81 H4X        -1.6230   -4.9060    5.5150 H         1 DYP1        0.0000
     82 H4Y        -0.8380   -5.7690    4.1510 H         1 DYP1        0.0000
     83 C35        -2.9910   -5.5890    3.9740 C.3       1 DYP1        0.0000
     84 H5X        -3.0060   -5.6880    2.8660 H         1 DYP1        0.0000
     85 H5Y        -3.7920   -4.8710    4.2630 H         1 DYP1        0.0000
     86 C36        -3.2890   -6.9580    4.6020 C.3       1 DYP1        0.0000
     87 H6X        -3.3260   -6.8550    5.7100 H         1 DYP1        0.0000
     88 H6Y        -2.4570   -7.6570    4.3550 H         1 DYP1        0.0000
     89 C37        -4.6080   -7.5690    4.1070 C.3       1 DYP1        0.0000
     90 H7X        -4.5690   -7.6390    2.9960 H         1 DYP1        0.0000
     91 H7Y        -5.4470   -6.8870    4.3750 H         1 DYP1        0.0000
     92 C38        -4.8660   -8.9630    4.7080 C.3       1 DYP1        0.0000
     93 H8X        -4.9070   -8.8520    5.8140 H         1 DYP1        0.0000
     94 H8Y        -3.9870   -9.6080    4.4840 H         1 DYP1        0.0000
     95 C39        -6.1160   -9.5970    4.1450 C.2       1 DYP1        0.0000
     96 H9X        -6.1080   -9.7170    3.0510 H         1 DYP1        0.0000
     97 C310       -7.2050  -10.0020    4.8260 C.2       1 DYP1        0.0000
     98 H10X       -8.0440  -10.4370    4.2620 H         1 DYP1        0.0000
     99 C311       -7.4290   -9.9310    6.3180 C.3       1 DYP1        0.0000
    100 H11X       -6.4870   -9.7390    6.8760 H         1 DYP1        0.0000
    101 H11Y       -7.8180  -10.9060    6.6860 H         1 DYP1        0.0000
    102 C312       -8.4390   -8.8300    6.6890 C.3       1 DYP1        0.0000
    103 H12X       -9.4050   -9.0140    6.1680 H         1 DYP1        0.0000
    104 H12Y       -8.0520   -7.8420    6.3480 H         1 DYP1        0.0000
    105 C313       -8.7030   -8.7610    8.2000 C.3       1 DYP1        0.0000
    106 H13X       -7.7430   -8.5610    8.7280 H         1 DYP1        0.0000
    107 H13Y       -9.0830   -9.7470    8.5490 H         1 DYP1        0.0000
    108 C314       -9.7180   -7.6720    8.5730 C.3       1 DYP1        0.0000
    109 H14X      -10.6770   -7.8720    8.0450 H         1 DYP1        0.0000
    110 H14Y       -9.3400   -6.6850    8.2240 H         1 DYP1        0.0000
    111 C315       -9.9840   -7.6010   10.0820 C.3       1 DYP1        0.0000
    112 H15X       -9.0220   -7.4000   10.6070 H         1 DYP1        0.0000
    113 H15Y      -10.3510   -8.5950   10.4290 H         1 DYP1        0.0000
    114 C316      -11.0030   -6.5260   10.4680 C.3       1 DYP1        0.0000
    115 H16X      -11.9800   -6.7220    9.9760 H         1 DYP1        0.0000
    116 H16Y      -10.6470   -5.5220   10.1520 H         1 DYP1        0.0000
    117 H16Z      -11.1600   -6.5130   11.5680 H         1 DYP1        0.0000
@<TRIPOS>BOND
     1    6    5 1 
     2    9    8 1 
     3    3    1 1 
     4    5    8 1 
     5    5    1 1 
     6    5    7 1 
     7   10    8 1 
     8    8   15 1 
     9    1    4 1 
    10    1    2 1 
    11   13   11 2 
    12   12   11 1 
    13   15   11 1 
    14   11   14 1 
    15   32   31 2 
    16   78   77 1 
    17   29   27 1 
    18   84   83 1 
    19   14   16 1 
    20   90   89 1 
    21   96   95 1 
    22   31   33 1 
    23   31   30 1 
    24   18   16 1 
    25   77   79 1 
    26   77   33 1 
    27   77   80 1 
    28   27   28 1 
    29   27   30 1 
    30   27   19 1 
    31   83   85 1 
    32   83   80 1 
    33   83   86 1 
    34   35   33 1 
    35   16   19 1 
    36   16   17 1 
    37   89   91 1 
    38   89   86 1 
    39   89   92 1 
    40   95   92 1 
    41   95   97 2 
    42   82   80 1 
    43   33   34 1 
    44   98   97 1 
    45   88   86 1 
    46   20   19 1 
    47   80   81 1 
    48   94   92 1 
    49   19   21 1 
    50   86   87 1 
    51   92   93 1 
    52   97   99 1 
    53   21   22 1 
    54  103  102 1 
    55   23   22 2 
    56   99  101 1 
    57   99  102 1 
    58   99  100 1 
    59  104  102 1 
    60  102  105 1 
    61   22   24 1 
    62  109  108 1 
    63   26   24 1 
    64   24   25 1 
    65   24   36 1 
    66  105  107 1 
    67  105  108 1 
    68  105  106 1 
    69  110  108 1 
    70  108  111 1 
    71   37   36 1 
    72   36   38 1 
    73   36   39 1 
    74  115  114 1 
    75  111  113 1 
    76  111  114 1 
    77  111  112 1 
    78  116  114 1 
    79   41   39 1 
    80   39   40 1 
    81   39   42 1 
    82  114  117 1 
    83   43   42 1 
    84   42   44 1 
    85   42   45 1 
    86   47   45 1 
    87   45   46 1 
    88   45   48 1 
    89   49   48 1 
    90   48   50 1 
    91   48   51 1 
    92   53   51 1 
    93   51   52 1 
    94   51   54 1 
    95   55   54 1 
    96   54   56 2 
    97   63   61 1 
    98   69   67 1 
    99   75   73 1 
   100   56   57 1 
   101   56   58 1 
   102   61   62 1 
   103   61   58 1 
   104   61   64 1 
   105   59   58 1 
   106   67   68 1 
   107   67   64 1 
   108   67   70 1 
   109   58   60 1 
   110   65   64 1 
   111   73   74 1 
   112   73   70 1 
   113   73   76 1 
   114   64   66 1 
   115   71   70 1 
   116   70   72 1 
