@<TRIPOS>MOLECULE
C:\Users\Praveer\PycharmProjects\pdb_to_mol2_converter\data\pdb\eamm.pdb
   11    10     0     0     0
SMALL
GASTEIGER

@<TRIPOS>ATOM
      1 CE          1.6380    1.4390    0.0010 C.3       1 EAM1        0.0000
      2 NZ          3.1250    1.4370    0.0000 N.4       1 EAM1        0.0000
      3 HE1         1.2900    1.9770   -0.8960 H         1 EAM1        0.0000
      4 HE2         1.2910    1.9760    0.9000 H         1 EAM1        0.0000
      5 HZ1         3.4840    2.4130    0.0020 H         1 EAM1        0.0000
      6 HZ2         3.4670    0.9430   -0.8480 H         1 EAM1        0.0000
      7 HZ3         3.4680    0.9400    0.8470 H         1 EAM1        0.0000
      8 C1          1.1270    0.0020    0.0010 C.3       1 EAM1        0.0000
      9 H11         1.4610   -0.5540    0.9040 H         1 EAM1        0.0000
     10 H12         1.4610   -0.5530   -0.9030 H         1 EAM1        0.0000
     11 H13         0.0140   -0.0030    0.0020 H         1 EAM1        0.0000
@<TRIPOS>BOND
     1   10    8 1 
     2    3    1 1 
     3    6    2 1 
     4    2    1 1 
     5    2    5 1 
     6    2    7 1 
     7    1    8 1 
     8    1    4 1 
     9    8   11 1 
    10    8    9 1 
