@<TRIPOS>MOLECULE
C:\Users\Praveer\PycharmProjects\pdb_to_mol2_converter\data\pdb\eben.pdb
   18    18     0     0     0
SMALL
GASTEIGER

@<TRIPOS>ATOM
      1 CG         -0.0480    0.0660   -0.0000 C.ar      1 EBE1        0.0000
      2 CD1         1.3570    0.0180   -0.0000 C.ar      1 EBE1        0.0000
      3 HD1         1.8550   -0.9400   -0.0000 H         1 EBE1        0.0000
      4 CD2        -0.6850    1.3230   -0.0000 C.ar      1 EBE1        0.0000
      5 HD2        -1.7600    1.4080   -0.0000 H         1 EBE1        0.0000
      6 CE1         2.1150    1.1960    0.0000 C.ar      1 EBE1        0.0000
      7 HE1         3.1940    1.1440    0.0000 H         1 EBE1        0.0000
      8 CE2         0.0740    2.5030    0.0000 C.ar      1 EBE1        0.0000
      9 HE2        -0.4230    3.4630    0.0000 H         1 EBE1        0.0000
     10 CZ          1.4720    2.4390    0.0000 C.ar      1 EBE1        0.0000
     11 HZ          2.0550    3.3490    0.0000 H         1 EBE1        0.0000
     12 CB         -0.7860   -1.2560   -0.0010 C.3       1 EBE1        0.0000
     13 HB1        -0.4610   -1.8190    0.9020 H         1 EBE1        0.0000
     14 HB2        -0.4600   -1.8190   -0.9030 H         1 EBE1        0.0000
     15 CA         -2.3190   -1.1320   -0.0020 C.3       1 EBE1        0.0000
     16 HA1        -2.6720   -0.5900   -0.9060 H         1 EBE1        0.0000
     17 HA2        -2.6730   -0.5900    0.9020 H         1 EBE1        0.0000
     18 HA3        -2.7850   -2.1410   -0.0020 H         1 EBE1        0.0000
@<TRIPOS>BOND
     1   16   15 1 
     2   14   12 1 
     3   15   18 1 
     4   15   12 1 
     5   15   17 1 
     6   12    1 1 
     7   12   13 1 
     8    1    2 ar
     9    1    4 ar
    10    2    3 1 
    11    2    6 ar
    12    4    5 1 
    13    4    8 ar
    14    6    7 1 
    15    6   10 ar
    16    8    9 1 
    17    8   10 ar
    18   10   11 1 
