@<TRIPOS>MOLECULE
C:\Users\Praveer\PycharmProjects\pdb_to_mol2_converter\data\pdb\eclipa.pdb
  297   298     0     0     0
SMALL
GASTEIGER

@<TRIPOS>ATOM
      1 HB6S       -7.9570    2.3200    0.9020 H         1 ECL1        0.0000
      2 OB6        -6.7870    0.8210    1.7760 O.3       1 ECL1        0.0000
      3 HOB6       -5.9730    0.3610    1.5440 H         1 ECL1        0.0000
      4 CB6        -7.0770    1.6770    0.6640 C.3       1 ECL1        0.0000
      5 HB6R       -7.3480    1.0600   -0.2240 H         1 ECL1        0.0000
      6 CB5        -5.8780    2.5370    0.3240 C.3       1 ECL1        0.0000
      7 OB5        -4.7310    1.6850    0.1690 O.3       1 ECL1        0.0000
      8 HB5        -5.7140    3.2440    1.1730 H         1 ECL1        0.0000
      9 CB1        -3.5400    2.4580    0.0200 C.3       1 ECL1        0.0000
     10 HB1        -3.3990    3.1220    0.9020 H         1 ECL1        0.0000
     11 OA6        -2.4140    1.6460   -0.1440 O.3       1 ECL1        0.0000
     12 CA6        -2.1300    0.8530    1.0060 C.3       1 ECL1        0.0000
     13 HA6R       -2.5670   -0.1580    0.8750 H         1 ECL1        0.0000
     14 HA6S       -2.5800    1.2910    1.9220 H         1 ECL1        0.0000
     15 CB4        -6.0260    3.3160   -0.9650 C.3       1 ECL1        0.0000
     16 HB4        -6.1380    2.5740   -1.7970 H         1 ECL1        0.0000
     17 OB4        -7.1630    4.1510   -0.8020 O.3       1 ECL1        0.0000
     18 PB         -8.4210    4.1630   -1.8740 P.3       1 ECL1        0.0000
     19 OPB4       -8.4710    5.6050   -2.3580 O.3       1 ECL1        0.0000
     20 OPB3       -9.6230    3.7290   -1.0440 O.3       1 ECL1        0.0000
     21 OPB2       -8.0630    3.1840   -2.9850 O.2       1 ECL1        0.0000
     22 CB3        -4.7990    4.1540   -1.2300 C.3       1 ECL1        0.0000
     23 OB3        -4.9030    4.7450   -2.5170 O.3       1 ECL1        0.0000
     24 HB3        -4.6730    4.9080   -0.4120 H         1 ECL1        0.0000
     25 C71        -5.4560    5.9650   -2.5620 C.2       1 ECL1        0.0000
     26 O71        -5.1880    6.8470   -1.7590 O.2       1 ECL1        0.0000
     27 C72        -5.6980    6.2080   -4.0420 C.3       1 ECL1        0.0000
     28 H72R       -6.7100    5.7970   -4.2560 H         1 ECL1        0.0000
     29 H72S       -4.9630    5.6350   -4.6410 H         1 ECL1        0.0000
     30 CB2        -3.5750    3.2790   -1.2460 C.3       1 ECL1        0.0000
     31 HB2        -3.6840    2.5620   -2.1010 H         1 ECL1        0.0000
     32 NB2        -2.3400    4.0420   -1.4090 N.am      1 ECL1        0.0000
     33 HNB2       -2.0080    4.5020   -0.5970 H         1 ECL1        0.0000
     34 CA4         0.0380    2.1420    1.1880 C.3       1 ECL1        0.0000
     35 HA4        -0.2350    2.6990    0.2590 H         1 ECL1        0.0000
     36 OA4        -0.4450    2.8880    2.3020 O.3       1 ECL1        0.0000
     37 HOA4       -0.2040    3.8130    2.1320 H         1 ECL1        0.0000
     38 CA5        -0.6270    0.7690    1.1310 C.3       1 ECL1        0.0000
     39 HA5        -0.3790    0.1750    2.0430 H         1 ECL1        0.0000
     40 OA5        -0.1650    0.0470   -0.0180 O.3       1 ECL1        0.0000
     41 CA1         1.2500   -0.1760   -0.0140 C.3       1 ECL1        0.0000
     42 HA1         1.4500   -0.6800   -0.9920 H         1 ECL1        0.0000
     43 OA1         1.6190   -1.0050    1.0760 O.3       1 ECL1        0.0000
     44 OPA2        2.7410   -3.0130    2.1000 O.3       1 ECL1        0.0000
     45 OPA3        2.5470   -2.8020   -0.4430 O.2       1 ECL1        0.0000
     46 OPA4        4.1090   -1.2730    0.8360 O.3       1 ECL1        0.0000
     47 PA          2.8320   -2.1100    0.8800 P.3       1 ECL1        0.0000
     48 CA3         1.5480    1.9920    1.1970 C.3       1 ECL1        0.0000
     49 HA3         1.8060    1.3870    2.1050 H         1 ECL1        0.0000
     50 OA3         2.3960    3.1470    1.2070 O.3       1 ECL1        0.0000
     51 C31         2.0180    4.3900    1.0800 C.2       1 ECL1        0.0000
     52 O31         0.8790    4.8250    1.0630 O.2       1 ECL1        0.0000
     53 C32         3.2660    5.2390    1.2960 C.3       1 ECL1        0.0000
     54 H32R        3.9870    4.9660    0.5010 H         1 ECL1        0.0000
     55 H32S        3.7040    4.9680    2.2790 H         1 ECL1        0.0000
     56 CA2         1.9380    1.1760   -0.0170 C.3       1 ECL1        0.0000
     57 HA2         1.5080    1.7180   -0.9030 H         1 ECL1        0.0000
     58 NA2         3.3600    1.0220   -0.2250 N.am      1 ECL1        0.0000
     59 HNA2        3.7160    0.1500    0.1820 H         1 ECL1        0.0000
     60 C73        -5.6460    7.6870   -4.4360 C.3       1 ECL1        0.0000
     61 H73R       -6.3940    8.2570   -3.8300 H         1 ECL1        0.0000
     62 O73        -5.9320    7.6700   -5.8350 O.3       1 ECL1        0.0000
     63 C81        -7.1660    7.9900   -6.1810 C.2       1 ECL1        0.0000
     64 O81        -7.9230    8.6990   -5.5400 O.2       1 ECL1        0.0000
     65 C82        -7.3680    7.7090   -7.6800 C.3       1 ECL1        0.0000
     66 H82R       -7.9420    8.5680   -8.0870 H         1 ECL1        0.0000
     67 H82S       -8.0130    6.8110   -7.7440 H         1 ECL1        0.0000
     68 C83        -6.0810    7.4970   -8.5230 C.3       1 ECL1        0.0000
     69 H83R       -5.9070    6.4090   -8.6840 H         1 ECL1        0.0000
     70 H83S       -5.1850    7.8930   -7.9950 H         1 ECL1        0.0000
     71 C84        -6.1420    8.2410   -9.8620 C.3       1 ECL1        0.0000
     72 H84R       -6.2950    9.3220   -9.6380 H         1 ECL1        0.0000
     73 H84S       -7.0190    7.9040  -10.4550 H         1 ECL1        0.0000
     74 C85        -4.8580    8.0920  -10.6920 C.3       1 ECL1        0.0000
     75 H85R       -5.0160    7.3130  -11.4690 H         1 ECL1        0.0000
     76 H85S       -4.0320    7.7450  -10.0310 H         1 ECL1        0.0000
     77 C86        -4.4360    9.4130  -11.3500 C.3       1 ECL1        0.0000
     78 H86R       -4.2310   10.1650  -10.5520 H         1 ECL1        0.0000
     79 H86S       -5.2810    9.7960  -11.9650 H         1 ECL1        0.0000
     80 C87        -3.1860    9.2890  -12.2330 C.3       1 ECL1        0.0000
     81 H87R       -3.2950    8.4250  -12.9270 H         1 ECL1        0.0000
     82 H87S       -2.3090    9.0880  -11.5770 H         1 ECL1        0.0000
     83 C88        -2.9410   10.5630  -13.0560 C.3       1 ECL1        0.0000
     84 H88R       -3.3170   11.4410  -12.4830 H         1 ECL1        0.0000
     85 H88S       -3.5380   10.5030  -13.9950 H         1 ECL1        0.0000
     86 C89        -1.4660   10.8340  -13.3950 C.3       1 ECL1        0.0000
     87 H89R       -0.9160   11.0880  -12.4610 H         1 ECL1        0.0000
     88 H89S       -1.4270   11.7270  -14.0600 H         1 ECL1        0.0000
     89 C810       -0.7540    9.6670  -14.0910 C.3       1 ECL1        0.0000
     90 H810       -1.4000    9.2840  -14.9140 H         1 ECL1        0.0000
     91 H810       -0.6050    8.8380  -13.3650 H         1 ECL1        0.0000
     92 C811        0.6020   10.0790  -14.6850 C.3       1 ECL1        0.0000
     93 H811        1.2440   10.5240  -13.8930 H         1 ECL1        0.0000
     94 H811        0.4240   10.8630  -15.4550 H         1 ECL1        0.0000
     95 C812        1.3390    8.9040  -15.3430 C.3       1 ECL1        0.0000
     96 H812        0.6320    8.3870  -16.0310 H         1 ECL1        0.0000
     97 H812        1.6460    8.1730  -14.5630 H         1 ECL1        0.0000
     98 C813        2.5680    9.3390  -16.1530 C.3       1 ECL1        0.0000
     99 H813        3.3480    9.7300  -15.4610 H         1 ECL1        0.0000
    100 H813        2.2720   10.1740  -16.8300 H         1 ECL1        0.0000
    101 C814        3.1530    8.2060  -17.0010 C.3       1 ECL1        0.0000
    102 H814        2.3850    7.8150  -17.7040 H         1 ECL1        0.0000
    103 H814        3.4960    7.3690  -16.3570 H         1 ECL1        0.0000
    104 H814        4.0170    8.5730  -17.5960 H         1 ECL1        0.0000
    105 C74        -4.2600    8.3570   -4.2640 C.3       1 ECL1        0.0000
    106 H74R       -3.5020    7.7880   -4.8410 H         1 ECL1        0.0000
    107 H74S       -3.9730    8.3070   -3.1930 H         1 ECL1        0.0000
    108 C75        -4.2450    9.8410   -4.6900 C.3       1 ECL1        0.0000
    109 H75R       -3.7370   10.4520   -3.9100 H         1 ECL1        0.0000
    110 H75S       -5.3020   10.1850   -4.7510 H         1 ECL1        0.0000
    111 C76        -3.5520   10.0890   -6.0380 C.3       1 ECL1        0.0000
    112 H76R       -3.7220    9.2100   -6.6990 H         1 ECL1        0.0000
    113 H76S       -2.4560   10.1560   -5.8660 H         1 ECL1        0.0000
    114 C77        -4.0570   11.3470   -6.7710 C.3       1 ECL1        0.0000
    115 H77R       -4.7530   11.9170   -6.1170 H         1 ECL1        0.0000
    116 H77S       -4.6310   11.0080   -7.6640 H         1 ECL1        0.0000
    117 C78        -2.9230   12.2740   -7.2310 C.3       1 ECL1        0.0000
    118 H78R       -2.1470   11.6280   -7.6990 H         1 ECL1        0.0000
    119 H78S       -2.4570   12.7720   -6.3530 H         1 ECL1        0.0000
    120 C79        -3.3520   13.3200   -8.2750 C.3       1 ECL1        0.0000
    121 H79R       -3.8060   14.2050   -7.7800 H         1 ECL1        0.0000
    122 H79S       -4.1270   12.8610   -8.9290 H         1 ECL1        0.0000
    123 C710       -2.1750   13.7330   -9.1740 C.3       1 ECL1        0.0000
    124 H710       -1.6960   12.7880   -9.5250 H         1 ECL1        0.0000
    125 H710       -1.4130   14.2940   -8.5910 H         1 ECL1        0.0000
    126 C711       -2.5680   14.5150  -10.4350 C.3       1 ECL1        0.0000
    127 H711       -3.5410   14.1450  -10.8280 H         1 ECL1        0.0000
    128 H711       -1.8000   14.3040  -11.2150 H         1 ECL1        0.0000
    129 C712       -2.6200   16.0380  -10.2520 C.3       1 ECL1        0.0000
    130 H712       -1.7500   16.3820   -9.6470 H         1 ECL1        0.0000
    131 H712       -3.5430   16.3050   -9.6930 H         1 ECL1        0.0000
    132 C713       -2.5880   16.7690  -11.6020 C.3       1 ECL1        0.0000
    133 H713       -3.1300   16.1510  -12.3540 H         1 ECL1        0.0000
    134 H713       -1.5290   16.8420  -11.9440 H         1 ECL1        0.0000
    135 C714       -3.2210   18.1610  -11.5760 C.3       1 ECL1        0.0000
    136 H714       -2.7230   18.8080  -10.8230 H         1 ECL1        0.0000
    137 H714       -4.3010   18.0870  -11.3230 H         1 ECL1        0.0000
    138 H714       -3.1290   18.6440  -12.5740 H         1 ECL1        0.0000
    139 C51        -1.5530    4.0280   -2.4950 C.2       1 ECL1        0.0000
    140 O51        -1.8970    3.5920   -3.5860 O.2       1 ECL1        0.0000
    141 C52        -0.1510    4.5450   -2.2730 C.3       1 ECL1        0.0000
    142 H52R        0.4640    3.6930   -1.9100 H         1 ECL1        0.0000
    143 H52S       -0.1540    5.3330   -1.4950 H         1 ECL1        0.0000
    144 C53         0.4680    5.0850   -3.5700 C.3       1 ECL1        0.0000
    145 H53R        0.3690    4.3080   -4.3700 H         1 ECL1        0.0000
    146 O53         1.8340    5.3820   -3.2390 O.3       1 ECL1        0.0000
    147 C61         2.7490    4.8510   -4.0460 C.2       1 ECL1        0.0000
    148 O61         2.5310    4.2660   -5.0860 O.2       1 ECL1        0.0000
    149 C62         4.1450    5.2490   -3.5670 C.3       1 ECL1        0.0000
    150 H62R        4.8800    4.7330   -4.2160 H         1 ECL1        0.0000
    151 H62S        4.2620    4.8680   -2.5330 H         1 ECL1        0.0000
    152 C63         4.3900    6.7700   -3.5620 C.3       1 ECL1        0.0000
    153 H63R        5.3440    6.9620   -3.0180 H         1 ECL1        0.0000
    154 H63S        3.5840    7.2910   -3.0030 H         1 ECL1        0.0000
    155 C64         4.5180    7.3860   -4.9580 C.3       1 ECL1        0.0000
    156 H64R        3.5960    7.2060   -5.5510 H         1 ECL1        0.0000
    157 H64S        5.3620    6.9040   -5.5010 H         1 ECL1        0.0000
    158 C65         4.7670    8.8940   -4.8580 C.3       1 ECL1        0.0000
    159 H65R        5.6510    9.0600   -4.2010 H         1 ECL1        0.0000
    160 H65S        3.8920    9.3830   -4.3740 H         1 ECL1        0.0000
    161 C66         5.0370    9.5570   -6.2100 C.3       1 ECL1        0.0000
    162 H66R        4.1530    9.4400   -6.8770 H         1 ECL1        0.0000
    163 H66S        5.8960    9.0390   -6.6920 H         1 ECL1        0.0000
    164 C67         5.3670   11.0470   -6.0550 C.3       1 ECL1        0.0000
    165 H67R        6.0180   11.1990   -5.1640 H         1 ECL1        0.0000
    166 H67S        4.4200   11.6020   -5.8690 H         1 ECL1        0.0000
    167 C68         6.0850   11.6200   -7.2830 C.3       1 ECL1        0.0000
    168 H68R        5.9210   10.9490   -8.1570 H         1 ECL1        0.0000
    169 H68S        7.1800   11.6420   -7.0820 H         1 ECL1        0.0000
    170 C69         5.6050   13.0270   -7.6540 C.3       1 ECL1        0.0000
    171 H69R        5.7100   13.6920   -6.7680 H         1 ECL1        0.0000
    172 H69S        4.5260   12.9900   -7.9260 H         1 ECL1        0.0000
    173 C610        6.4050   13.6140   -8.8230 C.3       1 ECL1        0.0000
    174 H610        6.1930   13.0280   -9.7440 H         1 ECL1        0.0000
    175 H610        7.4910   13.5150   -8.6000 H         1 ECL1        0.0000
    176 C611        6.0990   15.0950   -9.0700 C.3       1 ECL1        0.0000
    177 H611        6.3530   15.6690   -8.1500 H         1 ECL1        0.0000
    178 H611        5.0060   15.2160   -9.2450 H         1 ECL1        0.0000
    179 C612        6.8770   15.6720  -10.2540 C.3       1 ECL1        0.0000
    180 H612        6.6100   15.1370  -11.1910 H         1 ECL1        0.0000
    181 H612        7.9700   15.5610  -10.0890 H         1 ECL1        0.0000
    182 H612        6.6460   16.7500  -10.3870 H         1 ECL1        0.0000
    183 C54        -0.2140    6.3850   -4.0610 C.3       1 ECL1        0.0000
    184 H54R       -0.2860    7.1000   -3.2130 H         1 ECL1        0.0000
    185 H54S       -1.2470    6.1400   -4.3940 H         1 ECL1        0.0000
    186 C55         0.5430    7.0500   -5.2220 C.3       1 ECL1        0.0000
    187 H55R        0.7190    6.2880   -6.0160 H         1 ECL1        0.0000
    188 H55S        1.5340    7.3890   -4.8500 H         1 ECL1        0.0000
    189 C56        -0.1620    8.2560   -5.8530 C.3       1 ECL1        0.0000
    190 H56R       -0.2520    9.0630   -5.0980 H         1 ECL1        0.0000
    191 H56S       -1.1950    7.9750   -6.1550 H         1 ECL1        0.0000
    192 C57         0.6120    8.7600   -7.0810 C.3       1 ECL1        0.0000
    193 H57R        0.1580    8.2990   -7.9880 H         1 ECL1        0.0000
    194 H57S        1.6660    8.4020   -7.0300 H         1 ECL1        0.0000
    195 C58         0.6540   10.2860   -7.2400 C.3       1 ECL1        0.0000
    196 H58R        1.3920   10.7110   -6.5220 H         1 ECL1        0.0000
    197 H58S       -0.3390   10.7180   -6.9970 H         1 ECL1        0.0000
    198 C59         1.0400   10.6700   -8.6750 C.3       1 ECL1        0.0000
    199 H59R        0.2240   10.3440   -9.3610 H         1 ECL1        0.0000
    200 H59S        1.9620   10.1120   -8.9600 H         1 ECL1        0.0000
    201 C510        1.2940   12.1670   -8.8800 C.3       1 ECL1        0.0000
    202 H510        2.0690   12.5240   -8.1650 H         1 ECL1        0.0000
    203 H510        0.3580   12.7220   -8.6590 H         1 ECL1        0.0000
    204 C511        1.7500   12.4720  -10.3160 C.3       1 ECL1        0.0000
    205 H511        1.2460   11.7690  -11.0190 H         1 ECL1        0.0000
    206 H511        2.8440   12.2840  -10.3890 H         1 ECL1        0.0000
    207 C512        1.4270   13.9030  -10.7690 C.3       1 ECL1        0.0000
    208 H512        1.6840   14.6290   -9.9670 H         1 ECL1        0.0000
    209 H512        0.3300   13.9650  -10.9370 H         1 ECL1        0.0000
    210 C513        2.1470   14.3030  -12.0630 C.3       1 ECL1        0.0000
    211 H513        1.5300   15.0640  -12.5960 H         1 ECL1        0.0000
    212 H513        2.2280   13.4160  -12.7320 H         1 ECL1        0.0000
    213 C514        3.5330   14.9010  -11.8130 C.3       1 ECL1        0.0000
    214 H514        4.1740   14.1810  -11.2610 H         1 ECL1        0.0000
    215 H514        3.4480   15.8280  -11.2050 H         1 ECL1        0.0000
    216 H514        4.0330   15.1560  -12.7720 H         1 ECL1        0.0000
    217 C33         2.9910    6.7500    1.2520 C.3       1 ECL1        0.0000
    218 H33R        3.9450    7.2790    1.4930 H         1 ECL1        0.0000
    219 O33         2.0530    7.0900    2.2540 O.3       1 ECL1        0.0000
    220 HO33        1.1930    6.6790    2.1140 H         1 ECL1        0.0000
    221 C34         2.5100    7.2590   -0.1200 C.3       1 ECL1        0.0000
    222 H34R        1.5300    6.8010   -0.3740 H         1 ECL1        0.0000
    223 H34S        3.2470    6.9240   -0.8820 H         1 ECL1        0.0000
    224 C35         2.3690    8.7890   -0.2040 C.3       1 ECL1        0.0000
    225 H35R        3.2990    9.2810    0.1560 H         1 ECL1        0.0000
    226 H35S        1.5480    9.1010    0.4810 H         1 ECL1        0.0000
    227 C36         2.0520    9.2680   -1.6280 C.3       1 ECL1        0.0000
    228 H36R        1.7270    8.3940   -2.2380 H         1 ECL1        0.0000
    229 H36S        2.9740    9.6770   -2.0960 H         1 ECL1        0.0000
    230 C37         0.9290   10.3120   -1.6720 C.3       1 ECL1        0.0000
    231 H37R        1.2060   11.1860   -1.0430 H         1 ECL1        0.0000
    232 H37S        0.0180    9.8560   -1.2190 H         1 ECL1        0.0000
    233 C38         0.5850   10.7630   -3.1010 C.3       1 ECL1        0.0000
    234 H38R       -0.5140   10.6430   -3.2430 H         1 ECL1        0.0000
    235 H38S        1.0890   10.0980   -3.8360 H         1 ECL1        0.0000
    236 C39         0.9610   12.2210   -3.4000 C.3       1 ECL1        0.0000
    237 H39R        1.9480   12.2480   -3.9140 H         1 ECL1        0.0000
    238 H39S        1.0680   12.7830   -2.4460 H         1 ECL1        0.0000
    239 C310       -0.0850   12.9570   -4.2520 C.3       1 ECL1        0.0000
    240 H310       -1.0950   12.8420   -3.7970 H         1 ECL1        0.0000
    241 H310       -0.1140   12.4870   -5.2600 H         1 ECL1        0.0000
    242 C311        0.2440   14.4520   -4.3740 C.3       1 ECL1        0.0000
    243 H311        1.3530   14.5560   -4.4160 H         1 ECL1        0.0000
    244 H311       -0.0970   14.9840   -3.4580 H         1 ECL1        0.0000
    245 C312       -0.3290   15.1260   -5.6310 C.3       1 ECL1        0.0000
    246 H312       -0.7290   14.3580   -6.3280 H         1 ECL1        0.0000
    247 H312        0.5080   15.6420   -6.1560 H         1 ECL1        0.0000
    248 C313       -1.4100   16.1720   -5.3340 C.3       1 ECL1        0.0000
    249 H313       -1.0100   16.8930   -4.5830 H         1 ECL1        0.0000
    250 H313       -2.2970   15.6730   -4.8810 H         1 ECL1        0.0000
    251 C314       -1.8380   16.9520   -6.5810 C.3       1 ECL1        0.0000
    252 H314       -2.3480   16.2810   -7.3030 H         1 ECL1        0.0000
    253 H314       -0.9510   17.3940   -7.0850 H         1 ECL1        0.0000
    254 H314       -2.5320   17.7750   -6.3110 H         1 ECL1        0.0000
    255 C11         4.0620    1.6330   -1.1760 C.2       1 ECL1        0.0000
    256 O11         3.8290    2.7840   -1.5400 O.2       1 ECL1        0.0000
    257 C12         5.0890    0.7620   -1.8710 C.3       1 ECL1        0.0000
    258 H12R        4.5100   -0.0360   -2.3850 H         1 ECL1        0.0000
    259 H12S        5.7200    0.2560   -1.1120 H         1 ECL1        0.0000
    260 C13         5.9360    1.5640   -2.8760 C.3       1 ECL1        0.0000
    261 H13R        5.3280    2.3550   -3.3680 H         1 ECL1        0.0000
    262 O13         6.3650    0.6650   -3.8860 O.3       1 ECL1        0.0000
    263 HO13        5.6440    0.2220   -4.3400 H         1 ECL1        0.0000
    264 C14         7.1810    2.1870   -2.2090 C.3       1 ECL1        0.0000
    265 H14R        7.6980    1.3620   -1.6670 H         1 ECL1        0.0000
    266 H14S        6.8500    2.9250   -1.4470 H         1 ECL1        0.0000
    267 C15         8.2120    2.8420   -3.1530 C.3       1 ECL1        0.0000
    268 H15R        8.5840    2.0870   -3.8830 H         1 ECL1        0.0000
    269 H15S        9.0810    3.1520   -2.5290 H         1 ECL1        0.0000
    270 C16         7.6820    4.0660   -3.9100 C.3       1 ECL1        0.0000
    271 H16R        7.0700    4.6820   -3.2130 H         1 ECL1        0.0000
    272 H16S        7.0210    3.7240   -4.7370 H         1 ECL1        0.0000
    273 C17         8.8060    4.9440   -4.4790 C.3       1 ECL1        0.0000
    274 H17R        9.4690    4.3240   -5.1220 H         1 ECL1        0.0000
    275 H17S        9.4180    5.3240   -3.6300 H         1 ECL1        0.0000
    276 C18         8.2640    6.1310   -5.2860 C.3       1 ECL1        0.0000
    277 H18R        7.5080    6.6600   -4.6610 H         1 ECL1        0.0000
    278 H18S        7.7430    5.7520   -6.1930 H         1 ECL1        0.0000
    279 C19         9.3420    7.1470   -5.6940 C.3       1 ECL1        0.0000
    280 H19R       10.0700    6.6750   -6.3890 H         1 ECL1        0.0000
    281 H19S        9.8950    7.4620   -4.7800 H         1 ECL1        0.0000
    282 C110        8.7100    8.3870   -6.3440 C.3       1 ECL1        0.0000
    283 H110        7.9160    8.7450   -5.6480 H         1 ECL1        0.0000
    284 H110        8.2120    8.1050   -7.2970 H         1 ECL1        0.0000
    285 C111        9.6740    9.5620   -6.5710 C.3       1 ECL1        0.0000
    286 H111       10.4600    9.5790   -5.7840 H         1 ECL1        0.0000
    287 H111        9.0680   10.4900   -6.4580 H         1 ECL1        0.0000
    288 C112       10.3130    9.5730   -7.9680 C.3       1 ECL1        0.0000
    289 H112        9.5190    9.3990   -8.7300 H         1 ECL1        0.0000
    290 H112       11.0410    8.7360   -8.0480 H         1 ECL1        0.0000
    291 C113       11.0210   10.8920   -8.3230 C.3       1 ECL1        0.0000
    292 H113       11.4620   10.7750   -9.3400 H         1 ECL1        0.0000
    293 H113       11.8600   11.0630   -7.6120 H         1 ECL1        0.0000
    294 C114       10.1060   12.1220   -8.3270 C.3       1 ECL1        0.0000
    295 H114        9.7960   12.3880   -7.2940 H         1 ECL1        0.0000
    296 H114        9.1900   11.9210   -8.9230 H         1 ECL1        0.0000
    297 H114       10.6260   12.9990   -8.7650 H         1 ECL1        0.0000
@<TRIPOS>BOND
     1  102  101 1 
     2  104  101 1 
     3  101  103 1 
     4  101   98 1 
     5  100   98 1 
     6   98   99 1 
     7   98   95 1 
     8   96   95 1 
     9   94   92 1 
    10   95   92 1 
    11   95   97 1 
    12   90   89 1 
    13   92   89 1 
    14   92   93 1 
    15   89   86 1 
    16   89   91 1 
    17   88   86 1 
    18   85   83 1 
    19   86   83 1 
    20   86   87 1 
    21   83   84 1 
    22   83   80 1 
    23   81   80 1 
    24  216  213 1 
    25  212  210 1 
    26  211  210 1 
    27  138  135 1 
    28  133  132 1 
    29   80   82 1 
    30   80   77 1 
    31  210  213 1 
    32  210  207 1 
    33   79   77 1 
    34  134  132 1 
    35  213  214 1 
    36  213  215 1 
    37  132  135 1 
    38  132  129 1 
    39  135  137 1 
    40  135  136 1 
    41   75   74 1 
    42   77   74 1 
    43   77   78 1 
    44  128  126 1 
    45  180  179 1 
    46  205  204 1 
    47  209  207 1 
    48  127  126 1 
    49  207  204 1 
    50  207  208 1 
    51   74   76 1 
    52   74   71 1 
    53   73   71 1 
    54  126  129 1 
    55  126  123 1 
    56  206  204 1 
    57  182  179 1 
    58  204  201 1 
    59  179  181 1 
    60  179  176 1 
    61  129  131 1 
    62  129  130 1 
    63   71   72 1 
    64   71   68 1 
    65  174  173 1 
    66  124  123 1 
    67  199  198 1 
    68  292  291 1 
    69  178  176 1 
    70  123  125 1 
    71  123  120 1 
    72  176  173 1 
    73  176  177 1 
    74  200  198 1 
    75  122  120 1 
    76  296  294 1 
    77  201  198 1 
    78  201  203 1 
    79  201  202 1 
    80  173  175 1 
    81  173  170 1 
    82  297  294 1 
    83  289  288 1 
    84   69   68 1 
    85  198  195 1 
    86   68   70 1 
    87   68   65 1 
    88  294  291 1 
    89  294  295 1 
    90  291  288 1 
    91  291  293 1 
    92  120  121 1 
    93  120  117 1 
    94  168  167 1 
    95   66   65 1 
    96  290  288 1 
    97  193  192 1 
    98  288  285 1 
    99  172  170 1 
   100   67   65 1 
   101  118  117 1 
   102   65   63 1 
   103  116  114 1 
   104  170  167 1 
   105  170  171 1 
   106  252  251 1 
   107  284  282 1 
   108  167  169 1 
   109  167  164 1 
   110  195  192 1 
   111  195  197 1 
   112  195  196 1 
   113  117  114 1 
   114  117  119 1 
   115  253  251 1 
   116  192  194 1 
   117  192  189 1 
   118  162  161 1 
   119  114  115 1 
   120  114  111 1 
   121  112  111 1 
   122  163  161 1 
   123  251  254 1 
   124  251  248 1 
   125  285  287 1 
   126  285  282 1 
   127  285  286 1 
   128  280  279 1 
   129  282  279 1 
   130  282  283 1 
   131  246  245 1 
   132  161  164 1 
   133  161  158 1 
   134  278  276 1 
   135   63   62 1 
   136   63   64 2 
   137  247  245 1 
   138  191  189 1 
   139  164  166 1 
   140  164  165 1 
   141  111  113 1 
   142  111  108 1 
   143  187  186 1 
   144  189  186 1 
   145  189  190 1 
   146   62   60 1 
   147  279  276 1 
   148  279  281 1 
   149  245  248 1 
   150  245  242 1 
   151  156  155 1 
   152  157  155 1 
   153  248  250 1 
   154  248  249 1 
   155  276  277 1 
   156  276  273 1 
   157  241  239 1 
   158  186  188 1 
   159  186  183 1 
   160  274  273 1 
   161  148  147 2 
   162  155  158 1 
   163  155  152 1 
   164  158  160 1 
   165  158  159 1 
   166  106  105 1 
   167  110  108 1 
   168  272  270 1 
   169  108  105 1 
   170  108  109 1 
   171   29   27 1 
   172  273  270 1 
   173  273  275 1 
   174   60  105 1 
   175   60   27 1 
   176   60   61 1 
   177  243  242 1 
   178  185  183 1 
   179  242  239 1 
   180  242  244 1 
   181  145  144 1 
   182  263  262 1 
   183  105  107 1 
   184   28   27 1 
   185  239  240 1 
   186  239  236 1 
   187  150  149 1 
   188  183  144 1 
   189  183  184 1 
   190  147  149 1 
   191  147  146 1 
   192   27   25 1 
   193  237  236 1 
   194  270  271 1 
   195  270  267 1 
   196  262  260 1 
   197  268  267 1 
   198  235  233 1 
   199  140  139 2 
   200  144  146 1 
   201  144  141 1 
   202  149  152 1 
   203  149  151 1 
   204  152  153 1 
   205  152  154 1 
   206  236  233 1 
   207  236  238 1 
   208  261  260 1 
   209  234  233 1 
   210  267  269 1 
   211  267  264 1 
   212  233  230 1 
   213   21   18 2 
   214  260  264 1 
   215  260  257 1 
   216   25   23 1 
   217   25   26 2 
   218   23   22 1 
   219  139  141 1 
   220  139   32 am
   221  258  257 1 
   222   19   18 1 
   223  141  142 1 
   224  141  143 1 
   225  228  227 1 
   226  264  265 1 
   227  264  266 1 
   228   31   30 1 
   229  229  227 1 
   230   18   20 1 
   231   18   17 1 
   232  257  255 1 
   233  257  259 1 
   234   16   15 1 
   235  230  227 1 
   236  230  232 1 
   237  230  231 1 
   238  227  224 1 
   239  256  255 2 
   240   32   30 1 
   241   32   33 1 
   242   30   22 1 
   243   30    9 1 
   244   22   15 1 
   245   22   24 1 
   246  255   58 am
   247   42   41 1 
   248   15   17 1 
   249   15    6 1 
   250   57   56 1 
   251  223  221 1 
   252   45   47 2 
   253  222  221 1 
   254   58   56 1 
   255   58   59 1 
   256    5    4 1 
   257  224  221 1 
   258  224  225 1 
   259  224  226 1 
   260   11    9 1 
   261   11   12 1 
   262  221  217 1 
   263   40   41 1 
   264   40   38 1 
   265   56   41 1 
   266   56   48 1 
   267   41   43 1 
   268    9    7 1 
   269    9   10 1 
   270    7    6 1 
   271   35   34 1 
   272    6    4 1 
   273    6    8 1 
   274   54   53 1 
   275    4    1 1 
   276    4    2 1 
   277   46   47 1 
   278   13   12 1 
   279   47   43 1 
   280   47   44 1 
   281   12   38 1 
   282   12   14 1 
   283   52   51 2 
   284   51   50 1 
   285   51   53 1 
   286   38   34 1 
   287   38   39 1 
   288   34   48 1 
   289   34   36 1 
   290   48   50 1 
   291   48   49 1 
   292  217   53 1 
   293  217  218 1 
   294  217  219 1 
   295   53   55 1 
   296    3    2 1 
   297  220  219 1 
   298   37   36 1 
