@<TRIPOS>MOLECULE
C:\Users\Praveer\PycharmProjects\pdb_to_mol2_converter\data\pdb\eda.pdb
   57    56     0     0     0
SMALL
GASTEIGER

@<TRIPOS>ATOM
      1 O1          0.0560   -0.1010    0.0270 O.co2     1 EDA1        0.0000
      2 O2          2.0530   -1.0510   -0.2180 O.co2     1 EDA1        0.0000
      3 C1          1.3100   -0.0470   -0.0550 C.2       1 EDA1        0.0000
      4 C2          1.9460    1.3400    0.0520 C.3       1 EDA1        0.0000
      5 H2R         1.6380    1.7670    1.0270 H         1 EDA1        0.0000
      6 H2S         1.5190    1.9610   -0.7600 H         1 EDA1        0.0000
      7 C3          3.4880    1.3110   -0.0530 C.3       1 EDA1        0.0000
      8 H3R         3.7740    0.8460   -1.0230 H         1 EDA1        0.0000
      9 H3S         3.8890    0.6610    0.7570 H         1 EDA1        0.0000
     10 C4          4.1150    2.7070    0.0520 C.3       1 EDA1        0.0000
     11 H4R         3.8110    3.1650    1.0190 H         1 EDA1        0.0000
     12 H4S         3.7130    3.3430   -0.7680 H         1 EDA1        0.0000
     13 C5          5.6470    2.6620   -0.0360 C.3       1 EDA1        0.0000
     14 H5R         5.9350    2.1950   -1.0040 H         1 EDA1        0.0000
     15 H5S         6.0300    2.0080    0.7800 H         1 EDA1        0.0000
     16 C6          6.3000    4.0460    0.0770 C.3       1 EDA1        0.0000
     17 H6R         6.0240    4.4960    1.0570 H         1 EDA1        0.0000
     18 H6S         5.8950    4.7050   -0.7240 H         1 EDA1        0.0000
     19 C7          7.8300    3.9890   -0.0430 C.3       1 EDA1        0.0000
     20 H7R         8.0990    3.5660   -1.0360 H         1 EDA1        0.0000
     21 H7S         8.2290    3.3020    0.7370 H         1 EDA1        0.0000
     22 C8          8.4910    5.3660    0.1160 C.3       1 EDA1        0.0000
     23 H8R         8.2500    5.7660    1.1270 H         1 EDA1        0.0000
     24 H8S         8.0610    6.0660   -0.6350 H         1 EDA1        0.0000
     25 C9         10.0170    5.3220   -0.0560 C.3       1 EDA1        0.0000
     26 H9R        10.2530    4.9690   -1.0860 H         1 EDA1        0.0000
     27 H9S        10.4310    4.5790    0.6630 H         1 EDA1        0.0000
     28 C10        10.6750    6.6950    0.1830 C.3       1 EDA1        0.0000
     29 H10R       10.3980    7.0380    1.2050 H         1 EDA1        0.0000
     30 H10S       10.2250    7.4170   -0.5340 H         1 EDA1        0.0000
     31 C11        12.1790    6.6320    0.0600 C.2       1 EDA1        0.0000
     32 H11R       12.6390    5.7680    0.5620 H         1 EDA1        0.0000
     33 C12        12.9800    7.4950   -0.5970 C.2       1 EDA1        0.0000
     34 H12R       14.0640    7.2970   -0.5940 H         1 EDA1        0.0000
     35 C13        12.5630    8.7440   -1.3400 C.3       1 EDA1        0.0000
     36 H13R       11.4990    8.9890   -1.1410 H         1 EDA1        0.0000
     37 H13S       12.6260    8.5450   -2.4330 H         1 EDA1        0.0000
     38 C14        13.4620    9.9130   -1.0090 C.2       1 EDA1        0.0000
     39 H14R       14.5400    9.6870   -1.0260 H         1 EDA1        0.0000
     40 C15        13.0830   11.1670   -0.6910 C.2       1 EDA1        0.0000
     41 H15R       13.8640   11.9090   -0.4680 H         1 EDA1        0.0000
     42 C16        11.6740   11.7070   -0.6230 C.3       1 EDA1        0.0000
     43 H16R       11.3690   11.8300    0.4410 H         1 EDA1        0.0000
     44 H16S       10.9370   11.0200   -1.0950 H         1 EDA1        0.0000
     45 C17        11.5610   13.0750   -1.3210 C.3       1 EDA1        0.0000
     46 H17R       11.8590   12.9770   -2.3900 H         1 EDA1        0.0000
     47 H17S       12.2570   13.7980   -0.8380 H         1 EDA1        0.0000
     48 C18        10.1390   13.6550   -1.2580 C.3       1 EDA1        0.0000
     49 H18R        9.8170   13.7140   -0.1940 H         1 EDA1        0.0000
     50 H18S        9.4410   12.9660   -1.7850 H         1 EDA1        0.0000
     51 C19        10.0370   15.0520   -1.8850 C.3       1 EDA1        0.0000
     52 H19R       10.3630   14.9960   -2.9480 H         1 EDA1        0.0000
     53 H19S       10.7420   15.7340   -1.3550 H         1 EDA1        0.0000
     54 C20         8.6260   15.6450   -1.8210 C.3       1 EDA1        0.0000
     55 H20R        8.2820   15.7160   -0.7670 H         1 EDA1        0.0000
     56 H20S        7.9100   15.0050   -2.3810 H         1 EDA1        0.0000
     57 H20T        8.6090   16.6630   -2.2650 H         1 EDA1        0.0000
@<TRIPOS>BOND
     1   52   51 1 
     2   37   35 1 
     3   46   45 1 
     4   56   54 1 
     5   57   54 1 
     6   51   54 1 
     7   51   53 1 
     8   51   48 1 
     9   54   55 1 
    10   50   48 1 
    11   35   36 1 
    12   35   38 1 
    13   35   33 1 
    14   45   48 1 
    15   45   47 1 
    16   45   42 1 
    17   48   49 1 
    18   44   42 1 
    19   26   25 1 
    20   20   19 1 
    21   39   38 1 
    22    8    7 1 
    23   38   40 2 
    24   14   13 1 
    25   12   10 1 
    26    6    4 1 
    27   18   16 1 
    28   40   42 1 
    29   40   41 1 
    30   24   22 1 
    31   42   43 1 
    32   33   34 1 
    33   33   31 2 
    34   30   28 1 
    35    2    3 ar
    36   25   22 1 
    37   25   28 1 
    38   25   27 1 
    39    3    1 ar
    40    3    4 1 
    41    7   10 1 
    42    7    4 1 
    43    7    9 1 
    44   19   16 1 
    45   19   22 1 
    46   19   21 1 
    47   13   10 1 
    48   13   16 1 
    49   13   15 1 
    50   10   11 1 
    51    4    5 1 
    52   31   28 1 
    53   31   32 1 
    54   16   17 1 
    55   22   23 1 
    56   28   29 1 
