@<TRIPOS>MOLECULE
C:\Users\Praveer\PycharmProjects\pdb_to_mol2_converter\data\pdb\edap.pdb
   58    57     0     0     0
SMALL
GASTEIGER

@<TRIPOS>ATOM
      1 H1         -0.0330    0.0390    0.0460 H         1 EDA1        0.0000
      2 O1          0.9210    0.0180   -0.0010 O.3       1 EDA1        0.0000
      3 O2          0.5610    2.2340    0.1090 O.2       1 EDA1        0.0000
      4 C1          1.3610    1.3200    0.0320 C.2       1 EDA1        0.0000
      5 C2          2.8800    1.4290   -0.0370 C.3       1 EDA1        0.0000
      6 H2R         3.2220    0.9490   -0.9780 H         1 EDA1        0.0000
      7 H2S         3.3100    0.8700    0.8210 H         1 EDA1        0.0000
      8 C3          3.3530    2.8980    0.0050 C.3       1 EDA1        0.0000
      9 H3R         3.0000    3.3790    0.9460 H         1 EDA1        0.0000
     10 H3S         2.9050    3.4600   -0.8470 H         1 EDA1        0.0000
     11 C4          4.8810    3.0260   -0.0720 C.3       1 EDA1        0.0000
     12 H4R         5.2390    2.5640   -1.0190 H         1 EDA1        0.0000
     13 H4S         5.3390    2.4650    0.7730 H         1 EDA1        0.0000
     14 C5          5.3490    4.4870   -0.0160 C.3       1 EDA1        0.0000
     15 H5R         5.0040    4.9420    0.9400 H         1 EDA1        0.0000
     16 H5S         4.8740    5.0530   -0.8490 H         1 EDA1        0.0000
     17 C6          6.8730    4.6340   -0.1200 C.3       1 EDA1        0.0000
     18 H6R         7.2140    4.2050   -1.0900 H         1 EDA1        0.0000
     19 H6S         7.3550    4.0500    0.6960 H         1 EDA1        0.0000
     20 C7          7.3350    6.0960   -0.0280 C.3       1 EDA1        0.0000
     21 H7R         7.0260    6.5140    0.9560 H         1 EDA1        0.0000
     22 H7S         6.8280    6.6890   -0.8220 H         1 EDA1        0.0000
     23 C8          8.8540    6.2460   -0.1860 C.3       1 EDA1        0.0000
     24 H8R         9.1540    5.8520   -1.1830 H         1 EDA1        0.0000
     25 H8S         9.3660    5.6330    0.5890 H         1 EDA1        0.0000
     26 C9          9.3270    7.7030   -0.0620 C.3       1 EDA1        0.0000
     27 H9R         9.0660    8.0790    0.9530 H         1 EDA1        0.0000
     28 H9S         8.7770    8.3200   -0.8070 H         1 EDA1        0.0000
     29 C10        10.8440    7.8420   -0.2920 C.3       1 EDA1        0.0000
     30 H10R       11.0790    7.4500   -1.3070 H         1 EDA1        0.0000
     31 H10S       11.3580    7.1790    0.4390 H         1 EDA1        0.0000
     32 C11        11.3040    9.2750   -0.1800 C.2       1 EDA1        0.0000
     33 H11R       10.6560   10.0030   -0.6920 H         1 EDA1        0.0000
     34 C12        12.3870    9.7310    0.4800 C.2       1 EDA1        0.0000
     35 H12R       12.5790   10.8150    0.4740 H         1 EDA1        0.0000
     36 C13        13.4070    8.9040    1.2310 C.3       1 EDA1        0.0000
     37 H13R       13.2850    7.8230    1.0070 H         1 EDA1        0.0000
     38 H13S       13.2190    9.0110    2.3220 H         1 EDA1        0.0000
     39 C14        14.8170    9.3620    0.9370 C.2       1 EDA1        0.0000
     40 H14R       14.9640   10.4530    0.9350 H         1 EDA1        0.0000
     41 C15        15.8790    8.5780    0.6630 C.2       1 EDA1        0.0000
     42 H15R       16.8480    9.0590    0.4570 H         1 EDA1        0.0000
     43 C16        15.9080    7.0690    0.6310 C.3       1 EDA1        0.0000
     44 H16R       15.8750    6.7120   -0.4230 H         1 EDA1        0.0000
     45 H16S       15.0370    6.6210    1.1590 H         1 EDA1        0.0000
     46 C17        17.1890    6.5220    1.2880 C.3       1 EDA1        0.0000
     47 H17R       17.2430    6.8610    2.3470 H         1 EDA1        0.0000
     48 H17S       18.0820    6.9220    0.7570 H         1 EDA1        0.0000
     49 C18        17.2550    4.9880    1.2600 C.3       1 EDA1        0.0000
     50 H18R       17.1620    4.6390    0.2080 H         1 EDA1        0.0000
     51 H18S       16.3930    4.5760    1.8300 H         1 EDA1        0.0000
     52 C19        18.5610    4.4450    1.8530 C.3       1 EDA1        0.0000
     53 H19R       18.6610    4.8130    2.9000 H         1 EDA1        0.0000
     54 H19S       19.4170    4.8580    1.2710 H         1 EDA1        0.0000
     55 C20        18.6410    2.9160    1.8470 C.3       1 EDA1        0.0000
     56 H20R       18.5580    2.5270    0.8100 H         1 EDA1        0.0000
     57 H20S       17.8150    2.4820    2.4510 H         1 EDA1        0.0000
     58 H20T       19.6070    2.5730    2.2750 H         1 EDA1        0.0000
@<TRIPOS>BOND
     1   30   29 1 
     2   24   23 1 
     3   18   17 1 
     4   12   11 1 
     5    6    5 1 
     6   16   14 1 
     7   10    8 1 
     8   22   20 1 
     9   28   26 1 
    10   33   32 1 
    11   44   43 1 
    12   29   32 1 
    13   29   26 1 
    14   29   31 1 
    15   23   26 1 
    16   23   20 1 
    17   23   25 1 
    18   32   34 2 
    19   17   20 1 
    20   17   14 1 
    21   17   19 1 
    22   11   14 1 
    23   11    8 1 
    24   11   13 1 
    25   26   27 1 
    26    5    8 1 
    27    5    4 1 
    28    5    7 1 
    29   20   21 1 
    30   14   15 1 
    31    2    4 1 
    32    2    1 1 
    33    8    9 1 
    34    4    3 2 
    35   50   49 1 
    36   42   41 1 
    37   35   34 1 
    38   34   36 1 
    39   43   41 1 
    40   43   45 1 
    41   43   46 1 
    42   41   39 2 
    43   48   46 1 
    44   56   55 1 
    45   40   39 1 
    46   39   36 1 
    47   37   36 1 
    48   36   38 1 
    49   49   46 1 
    50   49   51 1 
    51   49   52 1 
    52   54   52 1 
    53   46   47 1 
    54   55   52 1 
    55   55   58 1 
    56   55   57 1 
    57   52   53 1 
