@<TRIPOS>MOLECULE
C:\Users\Praveer\PycharmProjects\pdb_to_mol2_converter\data\pdb\eepi.pdb
   17    16     0     0     0
SMALL
GASTEIGER

@<TRIPOS>ATOM
      1 C1          0.0220   -0.0600   -0.1220 C.3       1 EEP1        0.0000
      2 C2          1.5360    0.0150    0.1160 C.3       1 EEP1        0.0000
      3 C3          2.1050    1.4410    0.0740 C.3       1 EEP1        0.0000
      4 N4          3.5390    1.4380    0.3370 N.2       1 EEP1        0.0000
      5 C5          4.1890    2.4660   -0.0640 C.2       1 EEP1        0.0000
      6 C6          5.6720    2.5950    0.1380 C.3       1 EEP1        0.0000
      7 H11        -0.2350    0.3480   -1.1230 H         1 EEP1        0.0000
      8 H12        -0.5220    0.5260    0.6490 H         1 EEP1        0.0000
      9 H13        -0.3260   -1.1140   -0.0720 H         1 EEP1        0.0000
     10 H21         2.0590   -0.5990   -0.6510 H         1 EEP1        0.0000
     11 H22         1.7710   -0.4290    1.1110 H         1 EEP1        0.0000
     12 H31         1.6020    2.0610    0.8520 H         1 EEP1        0.0000
     13 H32         1.8730    1.8650   -0.9340 H         1 EEP1        0.0000
     14 H51         3.6710    3.2960   -0.5710 H         1 EEP1        0.0000
     15 H61         6.0650    1.7700    0.7710 H         1 EEP1        0.0000
     16 H62         5.9230    3.5530    0.6390 H         1 EEP1        0.0000
     17 H63         6.2060    2.5570   -0.8340 H         1 EEP1        0.0000
@<TRIPOS>BOND
     1    7    1 1 
     2   13    3 1 
     3   17    6 1 
     4   10    2 1 
     5   14    5 1 
     6    1    9 1 
     7    1    2 1 
     8    1    8 1 
     9    5    6 1 
    10    5    4 2 
    11    3    2 1 
    12    3    4 1 
    13    3   12 1 
    14    2   11 1 
    15    6   16 1 
    16    6   15 1 
