@<TRIPOS>MOLECULE
C:\Users\Praveer\PycharmProjects\pdb_to_mol2_converter\data\pdb\eesm.pdb
   19    18     0     0     0
SMALL
GASTEIGER

@<TRIPOS>ATOM
      1 C3         -0.0060   -0.0650   -0.0360 C.3       1 EES1        0.0000
      2 H31        -0.3350    0.4200   -0.9770 H         1 EES1        0.0000
      3 H32        -0.3880    0.5000    0.8380 H         1 EES1        0.0000
      4 S1          1.7880    0.0560    0.0110 S.O2      1 EES1        0.0000
      5 O11         2.3020   -0.5920   -1.1640 O.2       1 EES1        0.0000
      6 O12         2.2220   -0.3220    1.3260 O.2       1 EES1        0.0000
      7 N2          2.0280    1.6650   -0.1080 N.3       1 EES1        0.0000
      8 H21         2.3540    1.9910    0.8010 H         1 EES1        0.0000
      9 C4          2.8780    2.1370   -1.2190 C.3       1 EES1        0.0000
     10 H41         2.3840    1.9250   -2.1960 H         1 EES1        0.0000
     11 H42         3.8580    1.6050   -1.2090 H         1 EES1        0.0000
     12 C5         -0.4490   -1.5390    0.0140 C.3       1 EES1        0.0000
     13 H51        -0.0460   -2.0930   -0.8620 H         1 EES1        0.0000
     14 H52        -1.5560   -1.6140   -0.0010 H         1 EES1        0.0000
     15 H53        -0.0740   -2.0280    0.9390 H         1 EES1        0.0000
     16 C6          3.1100    3.6380   -1.0690 C.3       1 EES1        0.0000
     17 H61         3.6340    3.8640   -0.1160 H         1 EES1        0.0000
     18 H62         2.1440    4.1880   -1.0830 H         1 EES1        0.0000
     19 H63         3.7360    4.0140   -1.9070 H         1 EES1        0.0000
@<TRIPOS>BOND
     1   10    9 1 
     2   19   16 1 
     3    9   11 1 
     4    9   16 1 
     5    9    7 1 
     6    5    4 2 
     7   18   16 1 
     8   16   17 1 
     9    2    1 1 
    10   13   12 1 
    11    7    4 1 
    12    7    8 1 
    13    1    4 1 
    14    1   12 1 
    15    1    3 1 
    16   14   12 1 
    17    4    6 2 
    18   12   15 1 
