@<TRIPOS>MOLECULE
C:\Users\Praveer\PycharmProjects\pdb_to_mol2_converter\data\pdb\eicop.pdb
   60    59     0     0     0
SMALL
GASTEIGER

@<TRIPOS>ATOM
      1 H1         -0.0170   -0.0620   -0.1310 H         1 EIC1        0.0000
      2 O1          0.9340   -0.0660   -0.0350 O.3       1 EIC1        0.0000
      3 O2          0.5390    2.1450   -0.1180 O.2       1 EIC1        0.0000
      4 C1          1.3500    1.2450   -0.0170 C.2       1 EIC1        0.0000
      5 C2          2.8610    1.3780    0.1390 C.3       1 EIC1        0.0000
      6 H2R         3.3490    0.8610   -0.7130 H         1 EIC1        0.0000
      7 H2S         3.1590    0.8690    1.0800 H         1 EIC1        0.0000
      8 C3          3.3080    2.8560    0.1820 C.3       1 EIC1        0.0000
      9 H3R         2.7780    3.3820    1.0100 H         1 EIC1        0.0000
     10 H3S         3.0260    3.3620   -0.7700 H         1 EIC1        0.0000
     11 C4          4.8200    3.0050    0.3990 C.3       1 EIC1        0.0000
     12 H4R         5.3650    2.4950   -0.4270 H         1 EIC1        0.0000
     13 H4S         5.1010    2.5010    1.3510 H         1 EIC1        0.0000
     14 C5          5.2640    4.4740    0.4630 C.3       1 EIC1        0.0000
     15 H5R         4.6800    4.9920    1.2570 H         1 EIC1        0.0000
     16 H5S         5.0300    4.9700   -0.5050 H         1 EIC1        0.0000
     17 C6          6.7610    4.6360    0.7660 C.3       1 EIC1        0.0000
     18 H6R         7.3550    4.1320   -0.0280 H         1 EIC1        0.0000
     19 H6S         6.9890    4.1310    1.7320 H         1 EIC1        0.0000
     20 C7          7.1880    6.1080    0.8620 C.3       1 EIC1        0.0000
     21 H7R         6.5520    6.6180    1.6200 H         1 EIC1        0.0000
     22 H7S         7.0100    6.6050   -0.1180 H         1 EIC1        0.0000
     23 C8          8.6620    6.2800    1.2560 C.3       1 EIC1        0.0000
     24 H8R         9.3070    5.7820    0.4980 H         1 EIC1        0.0000
     25 H8S         8.8350    5.7740    2.2330 H         1 EIC1        0.0000
     26 C9          9.0740    7.7560    1.3790 C.3       1 EIC1        0.0000
     27 H9R         8.3870    8.2550    2.0990 H         1 EIC1        0.0000
     28 H9S         8.9430    8.2460    0.3880 H         1 EIC1        0.0000
     29 C10        10.5300    7.9260    1.8530 C.3       1 EIC1        0.0000
     30 H10R       11.1850    7.3820    1.1360 H         1 EIC1        0.0000
     31 H10S       10.6400    7.4230    2.8390 H         1 EIC1        0.0000
     32 C11        10.9090    9.3830    1.9760 C.2       1 EIC1        0.0000
     33 H11R       10.2220    9.9850    2.5910 H         1 EIC1        0.0000
     34 C12        11.9600    9.9940    1.3960 C.2       1 EIC1        0.0000
     35 H12R       12.1030   11.0730    1.5630 H         1 EIC1        0.0000
     36 C13        13.0070    9.3430    0.5260 C.3       1 EIC1        0.0000
     37 H13R       13.1370    8.2670    0.7830 H         1 EIC1        0.0000
     38 H13S       13.9950    9.8260    0.6970 H         1 EIC1        0.0000
     39 C14        12.6610    9.4420   -0.9700 C.3       1 EIC1        0.0000
     40 H14R       12.5620   10.5120   -1.2640 H         1 EIC1        0.0000
     41 H14S       11.6820    8.9460   -1.1580 H         1 EIC1        0.0000
     42 C15        13.7260    8.7820   -1.8590 C.3       1 EIC1        0.0000
     43 H15R       13.8260    7.7120   -1.5700 H         1 EIC1        0.0000
     44 H15S       14.7070    9.2750   -1.6780 H         1 EIC1        0.0000
     45 C16        13.3880    8.8690   -3.3530 C.3       1 EIC1        0.0000
     46 H16R       13.2900    9.9390   -3.6430 H         1 EIC1        0.0000
     47 H16S       12.4060    8.3780   -3.5350 H         1 EIC1        0.0000
     48 C17        14.4530    8.2040   -4.2360 C.3       1 EIC1        0.0000
     49 H17R       14.5450    7.1320   -3.9510 H         1 EIC1        0.0000
     50 H17S       15.4370    8.6900   -4.0460 H         1 EIC1        0.0000
     51 C18        14.1280    8.3000   -5.7330 C.3       1 EIC1        0.0000
     52 H18R       14.0330    9.3720   -6.0170 H         1 EIC1        0.0000
     53 H18S       13.1470    7.8100   -5.9250 H         1 EIC1        0.0000
     54 C19        15.1990    7.6410   -6.6130 C.3       1 EIC1        0.0000
     55 H19R       15.2920    6.5700   -6.3220 H         1 EIC1        0.0000
     56 H19S       16.1800    8.1290   -6.4080 H         1 EIC1        0.0000
     57 C20        14.8950    7.7330   -8.1100 C.3       1 EIC1        0.0000
     58 H20R       14.8210    8.7950   -8.4270 H         1 EIC1        0.0000
     59 H20S       13.9310    7.2300   -8.3420 H         1 EIC1        0.0000
     60 H20T       15.6980    7.2440   -8.7030 H         1 EIC1        0.0000
@<TRIPOS>BOND
     1   60   57 1 
     2   58   57 1 
     3   59   57 1 
     4   57   54 1 
     5   54   56 1 
     6   54   55 1 
     7   54   51 1 
     8   52   51 1 
     9   53   51 1 
    10   51   48 1 
    11   48   50 1 
    12   48   49 1 
    13   48   45 1 
    14   46   45 1 
    15   47   45 1 
    16   45   42 1 
    17   42   44 1 
    18   42   43 1 
    19   42   39 1 
    20   40   39 1 
    21   41   39 1 
    22   39   36 1 
    23   10    8 1 
    24    6    5 1 
    25   16   14 1 
    26   12   11 1 
    27    1    2 1 
    28    3    4 2 
    29   22   20 1 
    30    2    4 1 
    31   18   17 1 
    32    4    5 1 
    33    5    8 1 
    34    5    7 1 
    35    8   11 1 
    36    8    9 1 
    37   28   26 1 
    38   11   14 1 
    39   11   13 1 
    40   14   17 1 
    41   14   15 1 
    42   24   23 1 
    43   36   38 1 
    44   36   37 1 
    45   36   34 1 
    46   17   20 1 
    47   17   19 1 
    48   20   23 1 
    49   20   21 1 
    50   30   29 1 
    51   23   26 1 
    52   23   25 1 
    53   26   29 1 
    54   26   27 1 
    55   34   35 1 
    56   34   32 2 
    57   29   32 1 
    58   29   31 1 
    59   32   33 1 
