@<TRIPOS>MOLECULE
C:\Users\Praveer\PycharmProjects\pdb_to_mol2_converter\data\pdb\eico.pdb
   59    58     0     0     0
SMALL
GASTEIGER

@<TRIPOS>ATOM
      1 O1          0.0140   -0.1150    0.0910 O.co2     1 EIC1        0.0000
      2 O2          2.0850   -0.9220    0.0470 O.co2     1 EIC1        0.0000
      3 C1          1.2630    0.0290    0.0450 C.2       1 EIC1        0.0000
      4 C2          1.7850    1.4660   -0.0170 C.3       1 EIC1        0.0000
      5 H2R         1.4010    1.9940    0.8780 H         1 EIC1        0.0000
      6 H2S         1.3470    1.9330   -0.9220 H         1 EIC1        0.0000
      7 C3          3.3270    1.5550   -0.0670 C.3       1 EIC1        0.0000
      8 H3R         3.6920    0.9730   -0.9450 H         1 EIC1        0.0000
      9 H3S         3.7470    1.0740    0.8450 H         1 EIC1        0.0000
     10 C4          3.8300    3.0000   -0.1700 C.3       1 EIC1        0.0000
     11 H4R         3.4620    3.5740    0.7090 H         1 EIC1        0.0000
     12 H4S         3.3950    3.4620   -1.0840 H         1 EIC1        0.0000
     13 C5          5.3610    3.0890   -0.2350 C.3       1 EIC1        0.0000
     14 H5R         5.7160    2.4640   -1.0860 H         1 EIC1        0.0000
     15 H5S         5.7880    2.6600    0.6980 H         1 EIC1        0.0000
     16 C6          5.8680    4.5250   -0.4210 C.3       1 EIC1        0.0000
     17 H6R         5.5190    5.1500    0.4310 H         1 EIC1        0.0000
     18 H6S         5.4230    4.9420   -1.3530 H         1 EIC1        0.0000
     19 C7          7.3970    4.6010   -0.5180 C.3       1 EIC1        0.0000
     20 H7R         7.7390    3.9280   -1.3370 H         1 EIC1        0.0000
     21 H7S         7.8420    4.2290    0.4320 H         1 EIC1        0.0000
     22 C8          7.9070    6.0210   -0.7970 C.3       1 EIC1        0.0000
     23 H8R         7.5760    6.6980    0.0210 H         1 EIC1        0.0000
     24 H8S         7.4510    6.3870   -1.7440 H         1 EIC1        0.0000
     25 C9          9.4360    6.0860   -0.9200 C.3       1 EIC1        0.0000
     26 H9R         9.7580    5.3650   -1.7050 H         1 EIC1        0.0000
     27 H9S         9.8860    5.7630    0.0460 H         1 EIC1        0.0000
     28 C10         9.9370    7.4980   -1.2790 C.3       1 EIC1        0.0000
     29 H10R        9.5650    8.1970   -0.4970 H         1 EIC1        0.0000
     30 H10S        9.4650    7.8050   -2.2390 H         1 EIC1        0.0000
     31 C11        11.4400    7.5370   -1.4100 C.2       1 EIC1        0.0000
     32 H11R       11.8610    6.7810   -2.0920 H         1 EIC1        0.0000
     33 C12        12.2830    8.3650   -0.7650 C.2       1 EIC1        0.0000
     34 H12R       13.3650    8.2680   -0.9460 H         1 EIC1        0.0000
     35 C13        11.8980    9.4590    0.2010 C.3       1 EIC1        0.0000
     36 H13R       10.8790    9.8540   -0.0160 H         1 EIC1        0.0000
     37 H13S       12.5940   10.3200    0.0940 H         1 EIC1        0.0000
     38 C14        11.9270    8.9800    1.6630 C.3       1 EIC1        0.0000
     39 H14R       12.9460    8.6130    1.9190 H         1 EIC1        0.0000
     40 H14S       11.2180    8.1290    1.7870 H         1 EIC1        0.0000
     41 C15        11.5390   10.0920    2.6480 C.3       1 EIC1        0.0000
     42 H15R       10.5200   10.4610    2.3960 H         1 EIC1        0.0000
     43 H15S       12.2460   10.9430    2.5320 H         1 EIC1        0.0000
     44 C16        11.5540    9.6220    4.1090 C.3       1 EIC1        0.0000
     45 H16R       12.5740    9.2540    4.3630 H         1 EIC1        0.0000
     46 H16S       10.8480    8.7700    4.2250 H         1 EIC1        0.0000
     47 C17        11.1640   10.7360    5.0900 C.3       1 EIC1        0.0000
     48 H17R       10.1420   11.1000    4.8390 H         1 EIC1        0.0000
     49 H17S       11.8660   11.5910    4.9670 H         1 EIC1        0.0000
     50 C18        11.1880   10.2740    6.5530 C.3       1 EIC1        0.0000
     51 H18R       12.2090    9.9080    6.8020 H         1 EIC1        0.0000
     52 H18S       10.4840    9.4210    6.6780 H         1 EIC1        0.0000
     53 C19        10.8030   11.3900    7.5320 C.3       1 EIC1        0.0000
     54 H19R        9.7820   11.7540    7.2770 H         1 EIC1        0.0000
     55 H19S       11.5050   12.2440    7.3950 H         1 EIC1        0.0000
     56 C20        10.8280   10.9490    8.9980 C.3       1 EIC1        0.0000
     57 H20R       11.8460   10.6040    9.2820 H         1 EIC1        0.0000
     58 H20S       10.1160   10.1130    9.1640 H         1 EIC1        0.0000
     59 H20T       10.5440   11.7910    9.6650 H         1 EIC1        0.0000
@<TRIPOS>BOND
     1   30   28 1 
     2   32   31 1 
     3   24   22 1 
     4   26   25 1 
     5   31   28 1 
     6   31   33 2 
     7   18   16 1 
     8   20   19 1 
     9   28   25 1 
    10   28   29 1 
    11   14   13 1 
    12   12   10 1 
    13   34   33 1 
    14    8    7 1 
    15    6    4 1 
    16   25   22 1 
    17   25   27 1 
    18   22   19 1 
    19   22   23 1 
    20   33   35 1 
    21   19   16 1 
    22   19   21 1 
    23   16   13 1 
    24   16   17 1 
    25   13   10 1 
    26   13   15 1 
    27   10    7 1 
    28   10   11 1 
    29    7    4 1 
    30    7    9 1 
    31    4    3 1 
    32    4    5 1 
    33   36   35 1 
    34    3    2 ar
    35    3    1 ar
    36   37   35 1 
    37   35   38 1 
    38   38   40 1 
    39   38   39 1 
    40   38   41 1 
    41   42   41 1 
    42   43   41 1 
    43   41   44 1 
    44   44   46 1 
    45   44   45 1 
    46   44   47 1 
    47   48   47 1 
    48   49   47 1 
    49   47   50 1 
    50   50   52 1 
    51   50   51 1 
    52   50   53 1 
    53   54   53 1 
    54   55   53 1 
    55   53   56 1 
    56   56   58 1 
    57   56   57 1 
    58   56   59 1 
