@<TRIPOS>MOLECULE
C:\Users\Praveer\PycharmProjects\pdb_to_mol2_converter\data\pdb\eimi.pdb
   15    15     0     0     0
SMALL
GASTEIGER

@<TRIPOS>ATOM
      1 CA         -0.6750    0.8120   -1.1190 C.3       1 EIM1        0.0000
      2 HA1        -0.3840    0.3890   -2.1050 H         1 EIM1        0.0000
      3 HA2        -0.3950    1.8870   -1.1040 H         1 EIM1        0.0000
      4 HA3        -1.7790    0.7380   -1.0210 H         1 EIM1        0.0000
      5 ND1         2.2730    1.2250    0.0740 N.ar      1 EIM1        0.0000
      6 HD1         1.9170    2.1560    0.2230 H         1 EIM1        0.0000
      7 CG          1.5230    0.0770   -0.0510 C.ar      1 EIM1        0.0000
      8 CB          0.0170    0.0500    0.0210 C.3       1 EIM1        0.0000
      9 HB1        -0.3270   -1.0090    0.0060 H         1 EIM1        0.0000
     10 HB2        -0.2990    0.4810    0.9980 H         1 EIM1        0.0000
     11 NE2         3.7150   -0.4340   -0.2670 N.ar      1 EIM1        0.0000
     12 CD2         2.4210   -0.9280   -0.2620 C.ar      1 EIM1        0.0000
     13 HD2         2.2470   -1.9860   -0.4160 H         1 EIM1        0.0000
     14 CE1         3.5830    0.8600   -0.0630 C.ar      1 EIM1        0.0000
     15 HE1         4.4110    1.5710   -0.0150 H         1 EIM1        0.0000
@<TRIPOS>BOND
     1    2    1 1 
     2    1    3 1 
     3    1    4 1 
     4    1    8 1 
     5   13   12 1 
     6   11   12 ar
     7   11   14 ar
     8   12    7 ar
     9   14   15 1 
    10   14    5 ar
    11    7    8 1 
    12    7    5 ar
    13    9    8 1 
    14    8   10 1 
    15    5    6 1 
