@<TRIPOS>MOLECULE
C:\Users\Praveer\PycharmProjects\pdb_to_mol2_converter\data\pdb\eimm.pdb
   16    16     0     0     0
SMALL
GASTEIGER

@<TRIPOS>ATOM
      1 CA         -0.0230   -0.0250   -0.0000 C.3       1 EIM1        0.0000
      2 HA1        -0.3800   -1.0790    0.0030 H         1 EIM1        0.0000
      3 HA2        -0.4370    0.4680   -0.9060 H         1 EIM1        0.0000
      4 HA3        -0.4390    0.4730    0.9020 H         1 EIM1        0.0000
      5 CB          1.5160    0.0080    0.0020 C.3       1 EIM1        0.0000
      6 HB1         1.8830   -0.5440   -0.8940 H         1 EIM1        0.0000
      7 HB2         1.8810   -0.5410    0.9000 H         1 EIM1        0.0000
      8 CG          2.1330    1.3880    0.0000 C.2       1 EIM1        0.0000
      9 CD2         1.5560    2.6150   -0.0010 C.2       1 EIM1        0.0000
     10 HD2         0.5000    2.8690   -0.0010 H         1 EIM1        0.0000
     11 ND1         3.4900    1.5870   -0.0000 N.pl3     1 EIM1        0.0000
     12 HD1         4.1710    0.8520    0.0000 H         1 EIM1        0.0000
     13 NE2         2.5770    3.5350   -0.0010 N.pl3     1 EIM1        0.0000
     14 HE2         2.4490    4.5310   -0.0020 H         1 EIM1        0.0000
     15 CE1         3.7350    2.8900   -0.0010 C.3       1 EIM1        0.0000
     16 HE1         4.7130    3.3490   -0.0010 H         1 EIM1        0.0000
@<TRIPOS>BOND
     1    3    1 1 
     2    6    5 1 
     3   14   13 1 
     4    9   10 1 
     5    9   13 1 
     6    9    8 2 
     7   13   15 1 
     8   15   16 1 
     9   15   11 1 
    10    1    5 1 
    11    1    2 1 
    12    1    4 1 
    13    8   11 1 
    14    8    5 1 
    15   11   12 1 
    16    5    7 1 
