@<TRIPOS>MOLECULE
C:\Users\Praveer\PycharmProjects\pdb_to_mol2_converter\data\pdb\eind.pdb
   22    23     0     0     0
SMALL
GASTEIGER

@<TRIPOS>ATOM
      1 CA          0.0320   -0.2900    0.0020 C.3       1 EIN1        0.0000
      2 HA1        -0.1750   -1.3820    0.0050 H         1 EIN1        0.0000
      3 HA2        -0.4400    0.1480   -0.9030 H         1 EIN1        0.0000
      4 HA3        -0.4380    0.1520    0.9070 H         1 EIN1        0.0000
      5 CB          1.5470   -0.0350    0.0000 C.3       1 EIN1        0.0000
      6 HB1         1.9780   -0.5420   -0.8940 H         1 EIN1        0.0000
      7 HB2         1.9800   -0.5410    0.8940 H         1 EIN1        0.0000
      8 CG          2.0360    1.4060   -0.0010 C.ar      1 EIN1        0.0000
      9 CD2         1.3090    2.6600   -0.0010 C.ar      1 EIN1        0.0000
     10 CD1         3.3680    1.7280   -0.0000 C.ar      1 EIN1        0.0000
     11 HD1         4.2090    1.0420    0.0000 H         1 EIN1        0.0000
     12 NE1         3.4840    3.1080   -0.0000 N.ar      1 EIN1        0.0000
     13 HE1         4.3420    3.6410    0.0000 H         1 EIN1        0.0000
     14 CE2         2.2530    3.7030   -0.0000 C.ar      1 EIN1        0.0000
     15 CE3        -0.0520    2.9820   -0.0020 C.ar      1 EIN1        0.0000
     16 HE3        -0.8060    2.2140   -0.0030 H         1 EIN1        0.0000
     17 CZ2         1.8650    5.0300    0.0000 C.ar      1 EIN1        0.0000
     18 HZ2         2.6090    5.8120    0.0010 H         1 EIN1        0.0000
     19 CZ3        -0.4520    4.3250   -0.0020 C.ar      1 EIN1        0.0000
     20 HZ3        -1.5050    4.5750   -0.0020 H         1 EIN1        0.0000
     21 CH2         0.5020    5.3470   -0.0000 C.ar      1 EIN1        0.0000
     22 HH2         0.1840    6.3810    0.0000 H         1 EIN1        0.0000
@<TRIPOS>BOND
     1    3    1 1 
     2    6    5 1 
     3   16   15 1 
     4   15   19 ar
     5   15    9 ar
     6   19   20 1 
     7   19   21 ar
     8    8    9 ar
     9    8    5 1 
    10    8   10 ar
    11    9   14 ar
    12    5    1 1 
    13    5    7 1 
    14   10   11 1 
    15   10   12 ar
    16   12   13 1 
    17   12   14 ar
    18   14   17 ar
    19   17   21 ar
    20   17   18 1 
    21   21   22 1 
    22    1    2 1 
    23    1    4 1 
