@<TRIPOS>MOLECULE
C:\Users\Praveer\PycharmProjects\pdb_to_mol2_converter\data\pdb\ems.pdb
   12    11     0     0     0
SMALL
GASTEIGER

@<TRIPOS>ATOM
      1 H1          1.3760   -0.5180   -1.0190 H         1 EMS1        0.0000
      2 H2         -0.0690    0.0120   -0.0830 H         1 EMS1        0.0000
      3 H3          1.3730   -0.6480    0.7740 H         1 EMS1        0.0000
      4 CM1         1.0420   -0.0240   -0.0820 C.3       1 EMS1        0.0000
      5 H4          1.3340    1.9490   -0.9100 H         1 EMS1        0.0000
      6 H5          2.7350    1.3310    0.0090 H         1 EMS1        0.0000
      7 CM2         1.6240    1.3940    0.0110 C.3       1 EMS1        0.0000
      8 S3          1.0680    2.3420    1.4630 S.3       1 EMS1        0.0000
      9 CM4         1.9560    1.3880    2.7300 C.3       1 EMS1        0.0000
     10 H6          3.0430    1.3390    2.5050 H         1 EMS1        0.0000
     11 H7          1.5690    0.3490    2.7970 H         1 EMS1        0.0000
     12 H8          1.8350    1.8560    3.7300 H         1 EMS1        0.0000
@<TRIPOS>BOND
     1    1    4 1 
     2    5    7 1 
     3    2    4 1 
     4    4    7 1 
     5    4    3 1 
     6    6    7 1 
     7    7    8 1 
     8    8    9 1 
     9   10    9 1 
    10    9   11 1 
    11    9   12 1 
