@<TRIPOS>MOLECULE
C:\Users\Praveer\PycharmProjects\pdb_to_mol2_converter\data\pdb\ep_2.pdb
   12    11     0     0     0
SMALL
GASTEIGER

@<TRIPOS>ATOM
      1 P1          2.2400    1.4160    0.0000 P.3       1 EP_1        0.0000
      2 O1          1.4550    0.0270    0.0010 O.3       1 EP_1        0.0000
      3 O2          3.6740    1.0490   -0.0000 O.3       1 EP_1        0.0000
      4 O3          1.8140    2.1110   -1.2370 O.2       1 EP_1        0.0000
      5 O4          1.8140    2.1110    1.2370 O.3       1 EP_1        0.0000
      6 C1          0.0210    0.0390    0.0010 C.3       1 EP_1        0.0000
      7 H11        -0.3550    0.5680   -0.9050 H         1 EP_1        0.0000
      8 H12        -0.3550    0.5690    0.9060 H         1 EP_1        0.0000
      9 C2         -0.4470   -1.4180    0.0020 C.3       1 EP_1        0.0000
     10 H21        -0.0580   -1.9370    0.9030 H         1 EP_1        0.0000
     11 H22        -0.0590   -1.9380   -0.9000 H         1 EP_1        0.0000
     12 H23        -1.5550   -1.4690    0.0020 H         1 EP_1        0.0000
@<TRIPOS>BOND
     1    4    1 2 
     2    7    6 1 
     3   11    9 1 
     4    1    3 1 
     5    1    2 1 
     6    1    5 1 
     7    2    6 1 
     8    6    9 1 
     9    6    8 1 
    10    9   12 1 
    11    9   10 1 
