@<TRIPOS>MOLECULE
C:\Users\Praveer\PycharmProjects\pdb_to_mol2_converter\data\pdb\epa.pdb
   51    50     0     0     0
SMALL
GASTEIGER

@<TRIPOS>ATOM
      1 O1         -0.0790    0.2110    0.0500 O.co2     1 EPA1        0.0000
      2 O2          1.8670   -0.8650    0.0320 O.co2     1 EPA1        0.0000
      3 C1          1.1790    0.1880    0.0370 C.2       1 EPA1        0.0000
      4 C2          1.8890    1.5430    0.0320 C.3       1 EPA1        0.0000
      5 H2R         1.5520    2.0870    0.9360 H         1 EPA1        0.0000
      6 H2S         1.5410    2.0940   -0.8650 H         1 EPA1        0.0000
      7 C3          3.4310    1.4370    0.0280 C.3       1 EPA1        0.0000
      8 H3R         3.7490    0.9000   -0.8940 H         1 EPA1        0.0000
      9 H3S         3.7410    0.8150    0.9000 H         1 EPA1        0.0000
     10 C4          4.1060    2.8190    0.0980 C.3       1 EPA1        0.0000
     11 H4R         3.7300    3.3390    1.0070 H         1 EPA1        0.0000
     12 H4S         3.7550    3.4050   -0.7790 H         1 EPA1        0.0000
     13 C5          5.6100    2.7020    0.1550 C.2       1 EPA1        0.0000
     14 H5R         5.9740    1.9690    0.8910 H         1 EPA1        0.0000
     15 C6          6.5120    3.3650   -0.5970 C.2       1 EPA1        0.0000
     16 H6R         7.5790    3.1460   -0.4380 H         1 EPA1        0.0000
     17 C7          6.2270    4.4070   -1.6540 C.3       1 EPA1        0.0000
     18 H7R         5.1490    4.6700   -1.6770 H         1 EPA1        0.0000
     19 H7S         6.4380    3.9740   -2.6570 H         1 EPA1        0.0000
     20 C8          7.0820    5.6370   -1.4590 C.2       1 EPA1        0.0000
     21 H8R         8.1510    5.4870   -1.6780 H         1 EPA1        0.0000
     22 C9          6.6760    6.8600   -1.0600 C.2       1 EPA1        0.0000
     23 H9R         7.4380    7.6480   -0.9540 H         1 EPA1        0.0000
     24 C10         5.2650    7.2820   -0.7170 C.3       1 EPA1        0.0000
     25 H10R        5.1300    7.2030    0.3850 H         1 EPA1        0.0000
     26 H10S        4.5260    6.5790   -1.1550 H         1 EPA1        0.0000
     27 C11         4.9670    8.7030   -1.1370 C.2       1 EPA1        0.0000
     28 H11R        5.8080    9.4070   -1.0370 H         1 EPA1        0.0000
     29 C12         3.7960    9.1790   -1.6080 C.2       1 EPA1        0.0000
     30 H12R        3.7440   10.2420   -1.8900 H         1 EPA1        0.0000
     31 C13         2.5140    8.4040   -1.8070 C.3       1 EPA1        0.0000
     32 H13R        2.5930    7.3880   -1.3670 H         1 EPA1        0.0000
     33 H13S        2.3600    8.2450   -2.8970 H         1 EPA1        0.0000
     34 C14         1.3160    9.1410   -1.2520 C.2       1 EPA1        0.0000
     35 H14R        1.2560   10.2040   -1.5310 H         1 EPA1        0.0000
     36 C15         0.3360    8.6310   -0.4770 C.2       1 EPA1        0.0000
     37 H15R       -0.4650    9.3080   -0.1410 H         1 EPA1        0.0000
     38 C16         0.2050    7.2020    0.0010 C.3       1 EPA1        0.0000
     39 H16R        0.5880    7.1360    1.0440 H         1 EPA1        0.0000
     40 H16S        0.8450    6.5180   -0.6000 H         1 EPA1        0.0000
     41 C17        -1.2200    6.7000   -0.0320 C.2       1 EPA1        0.0000
     42 H17R       -1.9980    7.4480   -0.2520 H         1 EPA1        0.0000
     43 C18        -1.5980    5.4230    0.1640 C.2       1 EPA1        0.0000
     44 H18R       -2.6680    5.1690    0.1080 H         1 EPA1        0.0000
     45 C19        -0.6940    4.2560    0.4740 C.3       1 EPA1        0.0000
     46 H19R        0.3830    4.5410    0.4750 H         1 EPA1        0.0000
     47 H19S       -0.8080    3.4660   -0.3050 H         1 EPA1        0.0000
     48 C20        -1.0370    3.6420    1.8390 C.3       1 EPA1        0.0000
     49 H20R       -2.1000    3.3230    1.8780 H         1 EPA1        0.0000
     50 H20S       -0.8440    4.3610    2.6630 H         1 EPA1        0.0000
     51 H20T       -0.4100    2.7370    2.0060 H         1 EPA1        0.0000
@<TRIPOS>BOND
     1   33   31 1 
     2   19   17 1 
     3   30   29 1 
     4   31   29 1 
     5   31   32 1 
     6   31   34 1 
     7   21   20 1 
     8   18   17 1 
     9   17   20 1 
    10   17   15 1 
    11   29   27 2 
    12   35   34 1 
    13   20   22 2 
    14   34   36 2 
    15   26   24 1 
    16   27   28 1 
    17   27   24 1 
    18   22   23 1 
    19   22   24 1 
    20    8    7 1 
    21    6    4 1 
    22   12   10 1 
    23   24   25 1 
    24   40   38 1 
    25   15   16 1 
    26   15   13 2 
    27   36   37 1 
    28   36   38 1 
    29   47   45 1 
    30   42   41 1 
    31   41   38 1 
    32   41   43 2 
    33   38   39 1 
    34    7    4 1 
    35    7   10 1 
    36    7    9 1 
    37    2    3 ar
    38    4    3 1 
    39    4    5 1 
    40    3    1 ar
    41   10   13 1 
    42   10   11 1 
    43   44   43 1 
    44   13   14 1 
    45   43   45 1 
    46   45   46 1 
    47   45   48 1 
    48   48   49 1 
    49   48   51 1 
    50   48   50 1 
