@<TRIPOS>MOLECULE
C:\Users\Praveer\PycharmProjects\pdb_to_mol2_converter\data\pdb\epap.pdb
   52    51     0     0     0
SMALL
GASTEIGER

@<TRIPOS>ATOM
      1 H1          0.2560   -0.2420    0.0010 H         1 EPA1        0.0000
      2 O1          1.2110   -0.2330   -0.0390 O.3       1 EPA1        0.0000
      3 O2          0.7710    1.9660    0.0990 O.2       1 EPA1        0.0000
      4 C1          1.6050    1.0820    0.0170 C.2       1 EPA1        0.0000
      5 C2          3.1180    1.2480   -0.0430 C.3       1 EPA1        0.0000
      6 H2R         3.4800    0.8000   -0.9910 H         1 EPA1        0.0000
      7 H2S         3.5690    0.6930    0.8050 H         1 EPA1        0.0000
      8 C3          3.5310    2.7340    0.0150 C.3       1 EPA1        0.0000
      9 H3R         3.1960    3.1740    0.9830 H         1 EPA1        0.0000
     10 H3S         3.0130    3.2870   -0.8040 H         1 EPA1        0.0000
     11 C4          5.0520    2.9210   -0.1290 C.3       1 EPA1        0.0000
     12 H4R         5.3780    2.4570   -1.0860 H         1 EPA1        0.0000
     13 H4S         5.5540    2.3570    0.6870 H         1 EPA1        0.0000
     14 C5          5.4140    4.3870   -0.1260 C.2       1 EPA1        0.0000
     15 H5R         4.9180    4.9770   -0.9120 H         1 EPA1        0.0000
     16 C6          6.2430    5.0280    0.7190 C.2       1 EPA1        0.0000
     17 H6R         6.3860    6.1100    0.5770 H         1 EPA1        0.0000
     18 C7          7.0350    4.4360    1.8610 C.3       1 EPA1        0.0000
     19 H7R         6.9510    3.3290    1.8880 H         1 EPA1        0.0000
     20 H7S         6.6020    4.7860    2.8240 H         1 EPA1        0.0000
     21 C8          8.4800    4.8700    1.7910 C.2       1 EPA1        0.0000
     22 H8R         8.6670    5.8910    2.1590 H         1 EPA1        0.0000
     23 C9          9.5300    4.1560    1.3350 C.2       1 EPA1        0.0000
     24 H9R        10.5210    4.6360    1.3380 H         1 EPA1        0.0000
     25 C10         9.5060    2.7460    0.7890 C.3       1 EPA1        0.0000
     26 H10R        9.5420    2.7980   -0.3210 H         1 EPA1        0.0000
     27 H10S        8.5510    2.2350    1.0310 H         1 EPA1        0.0000
     28 C11        10.6970    1.9450    1.2660 C.2       1 EPA1        0.0000
     29 H11R       11.6540    2.4900    1.2520 H         1 EPA1        0.0000
     30 C12        10.7070    0.6650    1.6870 C.2       1 EPA1        0.0000
     31 H12R       11.6680    0.2390    2.0170 H         1 EPA1        0.0000
     32 C13         9.5310   -0.2810    1.7700 C.3       1 EPA1        0.0000
     33 H13R        8.6380    0.1440    1.2650 H         1 EPA1        0.0000
     34 H13S        9.2490   -0.4010    2.8390 H         1 EPA1        0.0000
     35 C14         9.8780   -1.6400    1.2070 C.2       1 EPA1        0.0000
     36 H14R       10.8670   -2.0280    1.4980 H         1 EPA1        0.0000
     37 C15         9.1120   -2.3970    0.3970 C.2       1 EPA1        0.0000
     38 H15R        9.5190   -3.3610    0.0500 H         1 EPA1        0.0000
     39 C16         7.7270   -2.0590   -0.1060 C.3       1 EPA1        0.0000
     40 H16R        7.8250   -1.5250   -1.0770 H         1 EPA1        0.0000
     41 H16S        7.2200   -1.3500    0.5850 H         1 EPA1        0.0000
     42 C17         6.8530   -3.2750   -0.3080 C.2       1 EPA1        0.0000
     43 H17R        7.3490   -4.2530   -0.2090 H         1 EPA1        0.0000
     44 C18         5.5360   -3.2510   -0.5830 C.2       1 EPA1        0.0000
     45 H18R        5.0040   -4.2070   -0.7130 H         1 EPA1        0.0000
     46 C19         4.6780   -2.0230   -0.7610 C.3       1 EPA1        0.0000
     47 H19R        5.2550   -1.0830   -0.6080 H         1 EPA1        0.0000
     48 H19S        3.8610   -2.0230   -0.0050 H         1 EPA1        0.0000
     49 C20         4.0580   -1.9940   -2.1650 C.3       1 EPA1        0.0000
     50 H20R        3.4780   -2.9200   -2.3680 H         1 EPA1        0.0000
     51 H20S        4.8470   -1.8940   -2.9420 H         1 EPA1        0.0000
     52 H20T        3.3660   -1.1310   -2.2630 H         1 EPA1        0.0000
@<TRIPOS>BOND
     1   51   49 1 
     2   50   49 1 
     3   52   49 1 
     4   49   46 1 
     5   12   11 1 
     6   40   39 1 
     7    6    5 1 
     8   15   14 1 
     9   10    8 1 
    10   46   47 1 
    11   46   44 1 
    12   46   48 1 
    13   45   44 1 
    14   44   42 2 
    15   26   25 1 
    16   42   43 1 
    17   42   39 1 
    18   11   14 1 
    19   11    8 1 
    20   11   13 1 
    21   14   16 2 
    22   39   37 1 
    23   39   41 1 
    24    5    8 1 
    25    5    4 1 
    26    5    7 1 
    27    2    1 1 
    28    2    4 1 
    29    8    9 1 
    30    4    3 2 
    31   38   37 1 
    32   37   35 2 
    33   17   16 1 
    34   16   18 1 
    35   25   27 1 
    36   25   28 1 
    37   25   23 1 
    38   35   36 1 
    39   35   32 1 
    40   29   28 1 
    41   33   32 1 
    42   28   30 2 
    43   23   24 1 
    44   23   21 2 
    45   30   32 1 
    46   30   31 1 
    47   32   34 1 
    48   21   18 1 
    49   21   22 1 
    50   18   19 1 
    51   18   20 1 
