@<TRIPOS>MOLECULE
C:\Users\Praveer\PycharmProjects\pdb_to_mol2_converter\data\pdb\ephe.pdb
   19    19     0     0     0
SMALL
GASTEIGER

@<TRIPOS>ATOM
      1 CG         -0.0560    0.0640   -0.0000 C.ar      1 EPH1        0.0000
      2 CD1         1.3490    0.0240   -0.0000 C.ar      1 EPH1        0.0000
      3 HD1         1.8540   -0.9310   -0.0000 H         1 EPH1        0.0000
      4 CD2        -0.7010    1.3180   -0.0000 C.ar      1 EPH1        0.0000
      5 HD2        -1.7760    1.3960   -0.0000 H         1 EPH1        0.0000
      6 CE1         2.0990    1.2080   -0.0000 C.ar      1 EPH1        0.0000
      7 HE1         3.1790    1.1690    0.0000 H         1 EPH1        0.0000
      8 CE2         0.0530    2.5030   -0.0000 C.ar      1 EPH1        0.0000
      9 HE2        -0.4550    3.4560    0.0000 H         1 EPH1        0.0000
     10 CZ          1.4510    2.4450    0.0000 C.ar      1 EPH1        0.0000
     11 OH          2.2120    3.6300    0.0000 O.3       1 EPH1        0.0000
     12 HH          1.6010    4.3680    0.0000 H         1 EPH1        0.0000
     13 CB         -0.7870   -1.2620   -0.0010 C.3       1 EPH1        0.0000
     14 HB1        -0.4580   -1.8230    0.9020 H         1 EPH1        0.0000
     15 HB2        -0.4570   -1.8230   -0.9030 H         1 EPH1        0.0000
     16 CA         -2.3210   -1.1460   -0.0020 C.3       1 EPH1        0.0000
     17 HA1        -2.6760   -0.6070   -0.9060 H         1 EPH1        0.0000
     18 HA2        -2.6780   -0.6070    0.9020 H         1 EPH1        0.0000
     19 HA3        -2.7800   -2.1580   -0.0020 H         1 EPH1        0.0000
@<TRIPOS>BOND
     1   17   16 1 
     2   15   13 1 
     3   16   19 1 
     4   16   13 1 
     5   16   18 1 
     6   13    1 1 
     7   13   14 1 
     8    1    2 ar
     9    1    4 ar
    10    2    3 1 
    11    2    6 ar
    12    4    5 1 
    13    4    8 ar
    14    6    7 1 
    15    6   10 ar
    16    8    9 1 
    17    8   10 ar
    18   10   11 1 
    19   11   12 1 
