@<TRIPOS>MOLECULE
C:\Users\Praveer\PycharmProjects\pdb_to_mol2_converter\data\pdb\epre.pdb
   18    17     0     0     0
SMALL
GASTEIGER

@<TRIPOS>ATOM
      1 C1         -0.5170   -1.4280   -0.0000 C.3       1 EPR1        0.0000
      2 H11        -1.6260   -1.4830   -0.0000 H         1 EPR1        0.0000
      3 H12        -0.1340   -1.9550    0.9000 H         1 EPR1        0.0000
      4 H13        -0.1340   -1.9550   -0.9000 H         1 EPR1        0.0000
      5 C2         -0.0450    0.0240   -0.0000 C.3       1 EPR1        0.0000
      6 H21        -0.4260    0.5480    0.9050 H         1 EPR1        0.0000
      7 H22        -0.4260    0.5480   -0.9060 H         1 EPR1        0.0000
      8 O3          1.3720    0.0500    0.0000 O.3       1 EPR1        0.0000
      9 C4          1.8670    1.3800    0.0000 C.3       1 EPR1        0.0000
     10 H41         1.5000    1.9130    0.9050 H         1 EPR1        0.0000
     11 H42         1.5010    1.9130   -0.9040 H         1 EPR1        0.0000
     12 C5          3.4010    1.3650    0.0010 C.3       1 EPR1        0.0000
     13 H51         3.7450    0.8010   -0.8960 H         1 EPR1        0.0000
     14 H52         3.7450    0.8010    0.8970 H         1 EPR1        0.0000
     15 C6          4.0400    2.7580    0.0020 C.3       1 EPR1        0.0000
     16 H61         3.7310    3.3290    0.9030 H         1 EPR1        0.0000
     17 H62         3.7310    3.3300   -0.9000 H         1 EPR1        0.0000
     18 H63         5.1490    2.6770    0.0020 H         1 EPR1        0.0000
@<TRIPOS>BOND
     1    7    5 1 
     2   11    9 1 
     3    4    1 1 
     4   17   15 1 
     5   13   12 1 
     6    1    2 1 
     7    1    5 1 
     8    1    3 1 
     9    5    8 1 
    10    5    6 1 
    11    8    9 1 
    12    9   12 1 
    13    9   10 1 
    14   12   15 1 
    15   12   14 1 
    16   15   18 1 
    17   15   16 1 
