@<TRIPOS>MOLECULE
C:\Users\Praveer\PycharmProjects\pdb_to_mol2_converter\data\pdb\erg.pdb
   73    76     0     0     0
SMALL
GASTEIGER

@<TRIPOS>ATOM
      1 C3          1.5460   -0.0000   -0.0250 C.3       1 ERG1        0.0000
      2 O3          1.9910    1.3440   -0.0520 O.3       1 ERG1        0.0000
      3 H3'         1.5960    1.7280   -0.8380 H         1 ERG1        0.0000
      4 H3          1.9430   -0.4830    0.8990 H         1 ERG1        0.0000
      5 C4          2.0890   -0.7420   -1.2620 C.3       1 ERG1        0.0000
      6 H4A         3.2010   -0.7320   -1.1980 H         1 ERG1        0.0000
      7 H4B         1.8230   -0.1760   -2.1790 H         1 ERG1        0.0000
      8 C5          1.5410   -2.1530   -1.3300 C.2       1 ERG1        0.0000
      9 C6          2.3310   -3.2490   -1.3600 C.2       1 ERG1        0.0000
     10 H6          3.4190   -3.0920   -1.3900 H         1 ERG1        0.0000
     11 C7          1.8730   -4.5210   -1.3330 C.2       1 ERG1        0.0000
     12 C8          0.5680   -4.8450   -1.2340 C.2       1 ERG1        0.0000
     13 H7          2.6090   -5.3380   -1.3500 H         1 ERG1        0.0000
     14 C14         0.0060   -6.2480   -1.0980 C.3       1 ERG1        0.0000
     15 H14        -0.5290   -6.2530   -0.1160 H         1 ERG1        0.0000
     16 C15         0.9440   -7.4760   -1.0190 C.3       1 ERG1        0.0000
     17 H15A        1.4440   -7.5520   -0.0320 H         1 ERG1        0.0000
     18 H15B        1.7180   -7.4200   -1.8150 H         1 ERG1        0.0000
     19 C16         0.0160   -8.6680   -1.3010 C.3       1 ERG1        0.0000
     20 H16A       -0.1160   -9.3080   -0.4040 H         1 ERG1        0.0000
     21 H16B        0.4540   -9.2830   -2.1160 H         1 ERG1        0.0000
     22 C17        -1.3610   -8.0730   -1.7450 C.3       1 ERG1        0.0000
     23 H17        -1.9850   -8.0130   -0.8200 H         1 ERG1        0.0000
     24 C13        -1.0580   -6.6080   -2.1340 C.3       1 ERG1        0.0000
     25 C18        -0.4430   -6.5830   -3.5580 C.3       1 ERG1        0.0000
     26 H18A        0.3360   -7.3610   -3.6780 H         1 ERG1        0.0000
     27 H18B        0.0230   -5.6010   -3.7780 H         1 ERG1        0.0000
     28 H18C       -1.2320   -6.7590   -4.3160 H         1 ERG1        0.0000
     29 C12        -2.2060   -5.5860   -1.9820 C.3       1 ERG1        0.0000
     30 H12A       -2.6630   -5.7050   -0.9760 H         1 ERG1        0.0000
     31 H12B       -2.9930   -5.7580   -2.7400 H         1 ERG1        0.0000
     32 C11        -1.6980   -4.1340   -2.1320 C.3       1 ERG1        0.0000
     33 H11A       -2.5540   -3.4520   -1.9360 H         1 ERG1        0.0000
     34 H11B       -1.3910   -4.0070   -3.1920 H         1 ERG1        0.0000
     35 C9         -0.5180   -3.7620   -1.1760 C.3       1 ERG1        0.0000
     36 H9         -0.9520   -3.8510   -0.1540 H         1 ERG1        0.0000
     37 C10        -0.0040   -2.2750   -1.2830 C.3       1 ERG1        0.0000
     38 C19        -0.5360   -1.6380   -2.5980 C.3       1 ERG1        0.0000
     39 H19A       -0.1880   -2.2120   -3.4820 H         1 ERG1        0.0000
     40 H19B       -0.1960   -0.5920   -2.7230 H         1 ERG1        0.0000
     41 H19C       -1.6440   -1.6000   -2.6010 H         1 ERG1        0.0000
     42 C1         -0.5220   -1.4660   -0.0600 C.3       1 ERG1        0.0000
     43 H1A        -0.2140   -1.9960    0.8700 H         1 ERG1        0.0000
     44 H1B        -1.6330   -1.4520   -0.0860 H         1 ERG1        0.0000
     45 C2          0.0110   -0.0230    0.0180 C.3       1 ERG1        0.0000
     46 H2A        -0.3970    0.5690   -0.8280 H         1 ERG1        0.0000
     47 H2B        -0.3360    0.4550    0.9610 H         1 ERG1        0.0000
     48 C20        -2.1010   -8.9710   -2.7490 C.3       1 ERG1        0.0000
     49 H20        -1.5480   -8.9740   -3.7160 H         1 ERG1        0.0000
     50 C21        -3.5380   -8.4710   -3.0170 C.3       1 ERG1        0.0000
     51 H21A       -3.5170   -7.5350   -3.6070 H         1 ERG1        0.0000
     52 H21B       -4.0800   -8.2870   -2.0660 H         1 ERG1        0.0000
     53 H21C       -4.1140   -9.2110   -3.6150 H         1 ERG1        0.0000
     54 C22        -2.2130  -10.3910   -2.2280 C.2       1 ERG1        0.0000
     55 C23        -1.7990  -11.4850   -2.8910 C.2       1 ERG1        0.0000
     56 H22        -2.6670  -10.5000   -1.2320 H         1 ERG1        0.0000
     57 H23        -1.3510  -11.3730   -3.8900 H         1 ERG1        0.0000
     58 C24        -1.9060  -12.9030   -2.3730 C.3       1 ERG1        0.0000
     59 H24        -1.5710  -12.9220   -1.3090 H         1 ERG1        0.0000
     60 C25        -3.3480  -13.4280   -2.3980 C.3       1 ERG1        0.0000
     61 H25        -3.9880  -12.6980   -1.8450 H         1 ERG1        0.0000
     62 C26        -3.9060  -13.5520   -3.8310 C.3       1 ERG1        0.0000
     63 H26A       -3.3590  -14.3270   -4.4060 H         1 ERG1        0.0000
     64 H26B       -3.8340  -12.5860   -4.3710 H         1 ERG1        0.0000
     65 H26C       -4.9760  -13.8470   -3.7920 H         1 ERG1        0.0000
     66 C27        -3.4380  -14.7700   -1.6430 C.3       1 ERG1        0.0000
     67 H27A       -3.0090  -14.6730   -0.6240 H         1 ERG1        0.0000
     68 H27B       -2.8950  -15.5700   -2.1860 H         1 ERG1        0.0000
     69 H27C       -4.5000  -15.0810   -1.5500 H         1 ERG1        0.0000
     70 C28        -0.9380  -13.8070   -3.1770 C.3       1 ERG1        0.0000
     71 H28A        0.1030  -13.4290   -3.0910 H         1 ERG1        0.0000
     72 H28B       -1.2060  -13.8350   -4.2530 H         1 ERG1        0.0000
     73 H28C       -0.9460  -14.8450   -2.7870 H         1 ERG1        0.0000
@<TRIPOS>BOND
     1   63   62 1 
     2   64   62 1 
     3   28   25 1 
     4   72   70 1 
     5   57   55 1 
     6   62   65 1 
     7   62   60 1 
     8   27   25 1 
     9   49   48 1 
    10   26   25 1 
    11   53   50 1 
    12   51   50 1 
    13   25   24 1 
    14   39   38 1 
    15   34   32 1 
    16   70   71 1 
    17   70   73 1 
    18   70   58 1 
    19   50   48 1 
    20   50   52 1 
    21   55   58 1 
    22   55   54 2 
    23   48   54 1 
    24   48   22 1 
    25   31   29 1 
    26   40   38 1 
    27   41   38 1 
    28   38   37 1 
    29   60   58 1 
    30   60   61 1 
    31   60   66 1 
    32   58   59 1 
    33   54   56 1 
    34   68   66 1 
    35    7    5 1 
    36   24   29 1 
    37   24   22 1 
    38   24   14 1 
    39   32   29 1 
    40   32   33 1 
    41   32   35 1 
    42   21   19 1 
    43   29   30 1 
    44   18   16 1 
    45   22   19 1 
    46   22   23 1 
    47   66   69 1 
    48   66   67 1 
    49   10    9 1 
    50    9   11 1 
    51    9    8 2 
    52   13   11 1 
    53   11   12 2 
    54    8   37 1 
    55    8    5 1 
    56   19   16 1 
    57   19   20 1 
    58   37   35 1 
    59   37   42 1 
    60    5    6 1 
    61    5    1 1 
    62   12   35 1 
    63   12   14 1 
    64   35   36 1 
    65   14   16 1 
    66   14   15 1 
    67   16   17 1 
    68    3    2 1 
    69   46   45 1 
    70   44   42 1 
    71   42   45 1 
    72   42   43 1 
    73    2    1 1 
    74    1   45 1 
    75    1    4 1 
    76   45   47 1 
