@<TRIPOS>MOLECULE
C:\Users\Praveer\PycharmProjects\pdb_to_mol2_converter\data\pdb\eru.pdb
   65    64     0     0     0
SMALL
GASTEIGER

@<TRIPOS>ATOM
      1 O1          0.0260   -0.1090    0.1250 O.co2     1 ERU1        0.0000
      2 O2          2.0970   -0.9190    0.0910 O.co2     1 ERU1        0.0000
      3 C1          1.2750    0.0330    0.0710 C.2       1 ERU1        0.0000
      4 C2          1.7990    1.4670   -0.0240 C.3       1 ERU1        0.0000
      5 H2R         1.4170    2.0150    0.8600 H         1 ERU1        0.0000
      6 H2S         1.3580    1.9150   -0.9380 H         1 ERU1        0.0000
      7 C3          3.3410    1.5560   -0.0800 C.3       1 ERU1        0.0000
      8 H3R         3.7030    0.9660   -0.9530 H         1 ERU1        0.0000
      9 H3S         3.7630    1.0840    0.8350 H         1 ERU1        0.0000
     10 C4          3.8400    3.0020   -0.1960 C.3       1 ERU1        0.0000
     11 H4R         3.4710    3.5800    0.6800 H         1 ERU1        0.0000
     12 H4S         3.4010    3.4550   -1.1130 H         1 ERU1        0.0000
     13 C5          5.3700    3.0960   -0.2640 C.3       1 ERU1        0.0000
     14 H5R         5.7280    2.4770   -1.1180 H         1 ERU1        0.0000
     15 H5S         5.8000    2.6650    0.6670 H         1 ERU1        0.0000
     16 C6          5.8700    4.5360   -0.4420 C.3       1 ERU1        0.0000
     17 H6R         5.5070    5.1560    0.4080 H         1 ERU1        0.0000
     18 H6S         5.4340    4.9540   -1.3770 H         1 ERU1        0.0000
     19 C7          7.4000    4.6230   -0.5160 C.3       1 ERU1        0.0000
     20 H7R         7.7590    3.9650   -1.3400 H         1 ERU1        0.0000
     21 H7S         7.8330    4.2380    0.4340 H         1 ERU1        0.0000
     22 C8          7.9040    6.0510   -0.7630 C.3       1 ERU1        0.0000
     23 H8R         7.5370    6.7160    0.0510 H         1 ERU1        0.0000
     24 H8S         7.4780    6.4230   -1.7220 H         1 ERU1        0.0000
     25 C9          9.4350    6.1330   -0.8300 C.3       1 ERU1        0.0000
     26 H9R         9.8020    5.4340   -1.6150 H         1 ERU1        0.0000
     27 H9S         9.8610    5.8020    0.1430 H         1 ERU1        0.0000
     28 C10         9.9370    7.5480   -1.1490 C.3       1 ERU1        0.0000
     29 H10R        9.5650    8.2510   -0.3700 H         1 ERU1        0.0000
     30 H10S        9.5130    7.8700   -2.1260 H         1 ERU1        0.0000
     31 C11        11.4680    7.6340   -1.2130 C.3       1 ERU1        0.0000
     32 H11R       11.8360    6.9020   -1.9660 H         1 ERU1        0.0000
     33 H11S       11.8820    7.3410   -0.2210 H         1 ERU1        0.0000
     34 C12        11.9590    9.0470   -1.5810 C.3       1 ERU1        0.0000
     35 H12R       11.5170    9.7590   -0.8480 H         1 ERU1        0.0000
     36 H12S       11.5480    9.3130   -2.5800 H         1 ERU1        0.0000
     37 C13        13.4670    9.1200   -1.6050 C.2       1 ERU1        0.0000
     38 H13R       13.9530    8.3550   -2.2300 H         1 ERU1        0.0000
     39 C14        14.2400    9.9890   -0.9260 C.2       1 ERU1        0.0000
     40 H14R       15.3340    9.9130   -1.0260 H         1 ERU1        0.0000
     41 C15        13.7620   11.1020   -0.0270 C.3       1 ERU1        0.0000
     42 H15R       12.7480   11.4560   -0.3200 H         1 ERU1        0.0000
     43 H15S       14.4380   11.9810   -0.1230 H         1 ERU1        0.0000
     44 C16        13.7130   10.6790    1.4520 C.3       1 ERU1        0.0000
     45 H16R       14.7240   10.3510    1.7840 H         1 ERU1        0.0000
     46 H16S       13.0210    9.8140    1.5670 H         1 ERU1        0.0000
     47 C17        13.2370   11.8160    2.3680 C.3       1 ERU1        0.0000
     48 H17R       12.2280   12.1500    2.0360 H         1 ERU1        0.0000
     49 H17S       13.9300   12.6810    2.2640 H         1 ERU1        0.0000
     50 C18        13.1670   11.4020    3.8440 C.3       1 ERU1        0.0000
     51 H18R       14.1760   11.0720    4.1780 H         1 ERU1        0.0000
     52 H18S       12.4750   10.5350    3.9460 H         1 ERU1        0.0000
     53 C19        12.6830   12.5400    4.7530 C.3       1 ERU1        0.0000
     54 H19R       11.6740   12.8690    4.4180 H         1 ERU1        0.0000
     55 H19S       13.3730   13.4070    4.6490 H         1 ERU1        0.0000
     56 C20        12.6120   12.1290    6.2300 C.3       1 ERU1        0.0000
     57 H20R       13.6210   11.8000    6.5650 H         1 ERU1        0.0000
     58 H20S       11.9220   11.2620    6.3340 H         1 ERU1        0.0000
     59 C21        12.1280   13.2660    7.1390 C.3       1 ERU1        0.0000
     60 H21R       11.1190   13.5930    6.7970 H         1 ERU1        0.0000
     61 H21S       12.8170   14.1340    7.0240 H         1 ERU1        0.0000
     62 C22        12.0570   12.8720    8.6170 C.3       1 ERU1        0.0000
     63 H22R       13.0590   12.5650    8.9850 H         1 ERU1        0.0000
     64 H22S       11.3550   12.0220    8.7590 H         1 ERU1        0.0000
     65 H22T       11.7030   13.7270    9.2320 H         1 ERU1        0.0000
@<TRIPOS>BOND
     1   36   34 1 
     2   38   37 1 
     3   30   28 1 
     4   32   31 1 
     5   24   22 1 
     6   26   25 1 
     7   37   34 1 
     8   37   39 2 
     9   34   31 1 
    10   34   35 1 
    11   18   16 1 
    12   20   19 1 
    13   31   28 1 
    14   31   33 1 
    15   28   25 1 
    16   28   29 1 
    17   14   13 1 
    18   12   10 1 
    19   40   39 1 
    20    8    7 1 
    21    6    4 1 
    22   39   41 1 
    23   25   22 1 
    24   25   27 1 
    25   22   19 1 
    26   22   23 1 
    27   19   16 1 
    28   19   21 1 
    29   16   13 1 
    30   16   17 1 
    31   42   41 1 
    32   13   10 1 
    33   13   15 1 
    34   10    7 1 
    35   10   11 1 
    36   43   41 1 
    37    7    4 1 
    38    7    9 1 
    39   41   44 1 
    40    4    3 1 
    41    4    5 1 
    42    3    2 ar
    43    3    1 ar
    44   44   46 1 
    45   44   45 1 
    46   44   47 1 
    47   48   47 1 
    48   49   47 1 
    49   47   50 1 
    50   50   52 1 
    51   50   51 1 
    52   50   53 1 
    53   54   53 1 
    54   55   53 1 
    55   53   56 1 
    56   56   58 1 
    57   56   57 1 
    58   56   59 1 
    59   60   59 1 
    60   61   59 1 
    61   59   62 1 
    62   62   64 1 
    63   62   63 1 
    64   62   65 1 
