@<TRIPOS>MOLECULE
C:\Users\Praveer\PycharmProjects\pdb_to_mol2_converter\data\pdb\erup.pdb
   66    65     0     0     0
SMALL
GASTEIGER

@<TRIPOS>ATOM
      1 H1          0.0030   -0.0550   -0.1570 H         1 ERU1        0.0000
      2 O1          0.9530   -0.0550   -0.0480 O.3       1 ERU1        0.0000
      3 O2          0.5520    2.1550   -0.1380 O.2       1 ERU1        0.0000
      4 C1          1.3640    1.2560   -0.0260 C.2       1 ERU1        0.0000
      5 C2          2.8720    1.3940    0.1490 C.3       1 ERU1        0.0000
      6 H2R         3.3710    0.8750   -0.6960 H         1 ERU1        0.0000
      7 H2S         3.1600    0.8880    1.0940 H         1 ERU1        0.0000
      8 C3          3.3140    2.8720    0.1920 C.3       1 ERU1        0.0000
      9 H3R         2.7780    3.3990    1.0150 H         1 ERU1        0.0000
     10 H3S         3.0400    3.3750   -0.7640 H         1 ERU1        0.0000
     11 C4          4.8250    3.0210    0.4190 C.3       1 ERU1        0.0000
     12 H4R         5.3740    2.5120   -0.4050 H         1 ERU1        0.0000
     13 H4S         5.1000    2.5170    1.3720 H         1 ERU1        0.0000
     14 C5          5.2680    4.4890    0.4870 C.3       1 ERU1        0.0000
     15 H5R         4.6870    5.0070    1.2830 H         1 ERU1        0.0000
     16 H5S         5.0350    4.9880   -0.4800 H         1 ERU1        0.0000
     17 C6          6.7660    4.6410    0.7870 C.3       1 ERU1        0.0000
     18 H6R         7.3540    4.1250   -0.0040 H         1 ERU1        0.0000
     19 H6S         6.9920    4.1430    1.7570 H         1 ERU1        0.0000
     20 C7          7.2050    6.1100    0.8650 C.3       1 ERU1        0.0000
     21 H7R         6.5890    6.6330    1.6310 H         1 ERU1        0.0000
     22 H7S         7.0140    6.6000   -0.1150 H         1 ERU1        0.0000
     23 C8          8.6880    6.2660    1.2300 C.3       1 ERU1        0.0000
     24 H8R         9.3100    5.7340    0.4760 H         1 ERU1        0.0000
     25 H8S         8.8700    5.7870    2.2180 H         1 ERU1        0.0000
     26 C9          9.1250    7.7360    1.2960 C.3       1 ERU1        0.0000
     27 H9R         8.4740    8.2760    2.0200 H         1 ERU1        0.0000
     28 H9S         8.9810    8.2040    0.2970 H         1 ERU1        0.0000
     29 C10        10.5890    7.9010    1.7250 C.3       1 ERU1        0.0000
     30 H10R       11.2450    7.3570    1.0080 H         1 ERU1        0.0000
     31 H10S       10.7280    7.4380    2.7280 H         1 ERU1        0.0000
     32 C11        11.0230    9.3720    1.7860 C.3       1 ERU1        0.0000
     33 H11R       10.3400    9.9170    2.4760 H         1 ERU1        0.0000
     34 H11S       10.9100    9.8180    0.7710 H         1 ERU1        0.0000
     35 C12        12.4780    9.5360    2.2630 C.3       1 ERU1        0.0000
     36 H12R       13.1240    8.9250    1.5930 H         1 ERU1        0.0000
     37 H12S       12.5660    9.1000    3.2830 H         1 ERU1        0.0000
     38 C13        12.8960   10.9870    2.2850 C.2       1 ERU1        0.0000
     39 H13R       12.2160   11.6520    2.8390 H         1 ERU1        0.0000
     40 C14        13.9720   11.5230    1.6780 C.2       1 ERU1        0.0000
     41 H14R       14.1440   12.6070    1.7650 H         1 ERU1        0.0000
     42 C15        15.0140   10.7790    0.8790 C.3       1 ERU1        0.0000
     43 H15R       15.0990    9.7190    1.2080 H         1 ERU1        0.0000
     44 H15S       16.0140   11.2370    1.0420 H         1 ERU1        0.0000
     45 C16        14.7080   10.7900   -0.6300 C.3       1 ERU1        0.0000
     46 H16R       14.6520   11.8400   -0.9960 H         1 ERU1        0.0000
     47 H16S       13.7160   10.3140   -0.8100 H         1 ERU1        0.0000
     48 C17        15.7700   10.0380   -1.4440 C.3       1 ERU1        0.0000
     49 H17R       15.8300    8.9880   -1.0790 H         1 ERU1        0.0000
     50 H17S       16.7620   10.5120   -1.2740 H         1 ERU1        0.0000
     51 C18        15.4690   10.0280   -2.9490 C.3       1 ERU1        0.0000
     52 H18R       15.4120   11.0770   -3.3160 H         1 ERU1        0.0000
     53 H18S       14.4750    9.5550   -3.1180 H         1 ERU1        0.0000
     54 C19        16.5300    9.2690   -3.7580 C.3       1 ERU1        0.0000
     55 H19R       16.5850    8.2190   -3.3910 H         1 ERU1        0.0000
     56 H19S       17.5240    9.7400   -3.5850 H         1 ERU1        0.0000
     57 C20        16.2330    9.2600   -5.2630 C.3       1 ERU1        0.0000
     58 H20R       16.1770   10.3090   -5.6300 H         1 ERU1        0.0000
     59 H20S       15.2400    8.7880   -5.4370 H         1 ERU1        0.0000
     60 C21        17.2950    8.5030   -6.0720 C.3       1 ERU1        0.0000
     61 H21R       17.3490    7.4550   -5.6990 H         1 ERU1        0.0000
     62 H21S       18.2880    8.9740   -5.8870 H         1 ERU1        0.0000
     63 C22        17.0170    8.4890   -7.5770 C.3       1 ERU1        0.0000
     64 H22R       16.9830    9.5260   -7.9760 H         1 ERU1        0.0000
     65 H22S       16.0410    8.0000   -7.7870 H         1 ERU1        0.0000
     66 H22T       17.8120    7.9310   -8.1170 H         1 ERU1        0.0000
@<TRIPOS>BOND
     1   66   63 1 
     2   64   63 1 
     3   65   63 1 
     4   63   60 1 
     5   60   62 1 
     6   60   61 1 
     7   60   57 1 
     8   58   57 1 
     9   59   57 1 
    10   57   54 1 
    11   54   56 1 
    12   54   55 1 
    13   54   51 1 
    14   52   51 1 
    15   53   51 1 
    16   51   48 1 
    17   48   50 1 
    18   48   49 1 
    19   48   45 1 
    20   46   45 1 
    21   47   45 1 
    22   10    8 1 
    23    6    5 1 
    24   45   42 1 
    25   16   14 1 
    26   12   11 1 
    27    1    2 1 
    28    3    4 2 
    29   22   20 1 
    30    2    4 1 
    31    4    5 1 
    32   18   17 1 
    33    5    8 1 
    34    5    7 1 
    35    8   11 1 
    36    8    9 1 
    37   28   26 1 
    38   11   14 1 
    39   11   13 1 
    40   24   23 1 
    41   14   17 1 
    42   14   15 1 
    43   34   32 1 
    44   17   20 1 
    45   17   19 1 
    46   20   23 1 
    47   20   21 1 
    48   42   44 1 
    49   42   43 1 
    50   42   40 1 
    51   30   29 1 
    52   23   26 1 
    53   23   25 1 
    54   26   29 1 
    55   26   27 1 
    56   36   35 1 
    57   40   41 1 
    58   40   38 2 
    59   29   32 1 
    60   29   31 1 
    61   32   35 1 
    62   32   33 1 
    63   35   38 1 
    64   35   37 1 
    65   38   39 1 
