@<TRIPOS>MOLECULE
C:\Users\Praveer\PycharmProjects\pdb_to_mol2_converter\data\pdb\es1.pdb
    8     7     0     0     0
SMALL
GASTEIGER

@<TRIPOS>ATOM
      1 S           1.7300    1.7210    0.0000 S.3       1 ES11        0.0000
      2 C1          1.1130    0.0000    0.0000 C.3       1 ES11        0.0000
      3 C2          1.6010   -0.8370   -1.1860 C.3       1 ES11        0.0000
      4 H21         1.1950   -1.8670   -1.1310 H         1 ES11        0.0000
      5 H22         2.7110   -0.8860   -1.1850 H         1 ES11        0.0000
      6 H23         1.2730   -0.3710   -2.1400 H         1 ES11        0.0000
      7 H11         0.0000    0.0000    0.0000 H         1 ES11        0.0000
      8 H12         1.4180   -0.5080    0.9420 H         1 ES11        0.0000
@<TRIPOS>BOND
     1    6    3 1 
     2    3    5 1 
     3    3    4 1 
     4    3    2 1 
     5    1    2 1 
     6    2    7 1 
     7    2    8 1 
