@<TRIPOS>MOLECULE
C:\Users\Praveer\PycharmProjects\pdb_to_mol2_converter\data\pdb\esna.pdb
   11    10     0     0     0
SMALL
GASTEIGER

@<TRIPOS>ATOM
      1 S           2.1190    1.7710   -0.0000 S.3       1 ESN1        0.0000
      2 O1          3.5600    1.6160    0.0000 O.3       1 ESN1        0.0000
      3 O2          1.5850    2.3450    1.2180 O.3       1 ESN1        0.0000
      4 O3          1.5850    2.3450   -1.2180 O.3       1 ESN1        0.0000
      5 C1          1.5110    0.0640   -0.0010 C.3       1 ESN1        0.0000
      6 H11         1.9210   -0.4280    0.9030 H         1 ESN1        0.0000
      7 H12         1.9220   -0.4270   -0.9040 H         1 ESN1        0.0000
      8 C2         -0.0320    0.0030   -0.0020 C.3       1 ESN1        0.0000
      9 H21        -0.4380    0.5120   -0.9030 H         1 ESN1        0.0000
     10 H22        -0.4390    0.5120    0.8990 H         1 ESN1        0.0000
     11 H23        -0.3790   -1.0510   -0.0020 H         1 ESN1        0.0000
@<TRIPOS>BOND
     1    4    1 1 
     2    7    5 1 
     3    9    8 1 
     4    8   11 1 
     5    8    5 1 
     6    8   10 1 
     7    5    1 1 
     8    5    6 1 
     9    1    2 1 
    10    1    3 1 
