@<TRIPOS>MOLECULE
C:\Users\Praveer\PycharmProjects\pdb_to_mol2_converter\data\pdb\eta.pdb
   53    52     0     0     0
SMALL
GASTEIGER

@<TRIPOS>ATOM
      1 O1          0.0100    0.0220   -0.0260 O.co2     1 ETA1        0.0000
      2 O2          1.9540   -1.0420    0.1510 O.co2     1 ETA1        0.0000
      3 C1          1.2670    0.0040    0.0280 C.2       1 ETA1        0.0000
      4 C2          1.9770    1.3550   -0.0660 C.3       1 ETA1        0.0000
      5 H2R         1.5980    1.9840    0.7640 H         1 ETA1        0.0000
      6 H2S         1.6780    1.8170   -1.0280 H         1 ETA1        0.0000
      7 C3          3.5160    1.2450    0.0140 C.3       1 ETA1        0.0000
      8 H3R         3.8760    0.5850   -0.8070 H         1 ETA1        0.0000
      9 H3S         3.7930    0.7590    0.9760 H         1 ETA1        0.0000
     10 C4          4.2010    2.6130   -0.0880 C.3       1 ETA1        0.0000
     11 H4R         3.8080    3.2690    0.7210 H         1 ETA1        0.0000
     12 H4S         3.9300    3.0760   -1.0630 H         1 ETA1        0.0000
     13 C5          5.7280    2.5210    0.0300 C.3       1 ETA1        0.0000
     14 H5R         6.1110    1.8400   -0.7630 H         1 ETA1        0.0000
     15 H5S         5.9830    2.0700    1.0150 H         1 ETA1        0.0000
     16 C6          6.4130    3.8880   -0.0990 C.3       1 ETA1        0.0000
     17 H6R         5.9720    4.5740    0.6600 H         1 ETA1        0.0000
     18 H6S         6.1850    4.3040   -1.1070 H         1 ETA1        0.0000
     19 C7          7.9370    3.8030    0.1000 C.3       1 ETA1        0.0000
     20 H7R         8.3380    3.0640   -0.6270 H         1 ETA1        0.0000
     21 H7S         8.1310    3.3920    1.1160 H         1 ETA1        0.0000
     22 C8          8.5870    5.1590   -0.0360 C.2       1 ETA1        0.0000
     23 H8R         8.1110    5.9480    0.5650 H         1 ETA1        0.0000
     24 C9          9.6490    5.4890   -0.7990 C.2       1 ETA1        0.0000
     25 H9R         9.9900    6.5360   -0.7860 H         1 ETA1        0.0000
     26 C10        10.4590    4.5810   -1.6950 C.3       1 ETA1        0.0000
     27 H10R       10.4890    5.0190   -2.7170 H         1 ETA1        0.0000
     28 H10S        9.9690    3.5940   -1.8220 H         1 ETA1        0.0000
     29 C11        11.8750    4.4390   -1.1820 C.2       1 ETA1        0.0000
     30 H11R       12.4100    5.3940   -1.0600 H         1 ETA1        0.0000
     31 C12        12.5350    3.3030   -0.8780 C.2       1 ETA1        0.0000
     32 H12R       13.5670    3.3910   -0.5010 H         1 ETA1        0.0000
     33 C13        12.0240    1.8840   -0.9640 C.3       1 ETA1        0.0000
     34 H13R       10.9830    1.8500   -1.3520 H         1 ETA1        0.0000
     35 H13S       11.9700    1.4670    0.0660 H         1 ETA1        0.0000
     36 C14        12.9120    0.9930   -1.8010 C.2       1 ETA1        0.0000
     37 H14R       13.9210    1.3800   -2.0190 H         1 ETA1        0.0000
     38 C15        12.5670   -0.2120   -2.2950 C.2       1 ETA1        0.0000
     39 H15R       13.3010   -0.7600   -2.9070 H         1 ETA1        0.0000
     40 C16        11.2400   -0.9100   -2.0990 C.3       1 ETA1        0.0000
     41 H16R       10.6880   -0.8950   -3.0650 H         1 ETA1        0.0000
     42 H16S       10.6000   -0.3560   -1.3780 H         1 ETA1        0.0000
     43 C17        11.3890   -2.3440   -1.6460 C.2       1 ETA1        0.0000
     44 H17R       12.3950   -2.7810   -1.7440 H         1 ETA1        0.0000
     45 C18        10.4080   -3.1050   -1.1240 C.2       1 ETA1        0.0000
     46 H18R       10.6400   -4.1380   -0.8250 H         1 ETA1        0.0000
     47 C19         8.9700   -2.6980   -0.9170 C.3       1 ETA1        0.0000
     48 H19R        8.7710   -1.6610   -1.2730 H         1 ETA1        0.0000
     49 H19S        8.7230   -2.7150    0.1680 H         1 ETA1        0.0000
     50 C20         8.0210   -3.6530   -1.6560 C.3       1 ETA1        0.0000
     51 H20R        8.1320   -4.6940   -1.2860 H         1 ETA1        0.0000
     52 H20S        8.2200   -3.6420   -2.7490 H         1 ETA1        0.0000
     53 H20T        6.9650   -3.3430   -1.4960 H         1 ETA1        0.0000
@<TRIPOS>BOND
     1   41   40 1 
     2   39   38 1 
     3   52   50 1 
     4   27   26 1 
     5   38   40 1 
     6   38   36 2 
     7   40   43 1 
     8   40   42 1 
     9   37   36 1 
    10   28   26 1 
    11   36   33 1 
    12   44   43 1 
    13   26   29 1 
    14   26   24 1 
    15   50   53 1 
    16   50   51 1 
    17   50   47 1 
    18   43   45 2 
    19   34   33 1 
    20   48   47 1 
    21   29   30 1 
    22   29   31 2 
    23   45   47 1 
    24   45   46 1 
    25   18   16 1 
    26   12   10 1 
    27    6    4 1 
    28   33   31 1 
    29   33   35 1 
    30   47   49 1 
    31   31   32 1 
    32    8    7 1 
    33   24   25 1 
    34   24   22 2 
    35   14   13 1 
    36   20   19 1 
    37   16   13 1 
    38   16   19 1 
    39   16   17 1 
    40   10    7 1 
    41   10   13 1 
    42   10   11 1 
    43    4    7 1 
    44    4    3 1 
    45    4    5 1 
    46   22   19 1 
    47   22   23 1 
    48    1    3 ar
    49    7    9 1 
    50    3    2 ar
    51   13   15 1 
    52   19   21 1 
