@<TRIPOS>MOLECULE
C:\Users\Praveer\PycharmProjects\pdb_to_mol2_converter\data\pdb\etac.pdb
   14    13     0     0     0
SMALL
GASTEIGER

@<TRIPOS>ATOM
      1 C1          0.0110    0.0120   -0.0030 C.3       1 ETA1        0.0000
      2 C           1.5190    0.0370   -0.0010 C.2       1 ETA1        0.0000
      3 OM          1.9330    1.2950   -0.0010 O.3       1 ETA1        0.0000
      4 C2          3.3720    1.3850    0.0010 C.3       1 ETA1        0.0000
      5 O           2.2310   -0.9490   -0.0000 O.2       1 ETA1        0.0000
      6 H11        -0.3670    0.5270   -0.9100 H         1 ETA1        0.0000
      7 H12        -0.3690    0.5270    0.9030 H         1 ETA1        0.0000
      8 H13        -0.3320   -1.0430   -0.0030 H         1 ETA1        0.0000
      9 H22         3.7960    0.8900   -0.9050 H         1 ETA1        0.0000
     10 H23         3.7940    0.8890    0.9070 H         1 ETA1        0.0000
     11 C21         3.7460    2.8640    0.0020 C.3       1 ETA1        0.0000
     12 H211        3.3300    3.3640    0.9020 H         1 ETA1        0.0000
     13 H212        3.3310    3.3650   -0.8990 H         1 ETA1        0.0000
     14 H213        4.8490    2.9900    0.0020 H         1 ETA1        0.0000
@<TRIPOS>BOND
     1    6    1 1 
     2    9    4 1 
     3   13   11 1 
     4    1    8 1 
     5    1    2 1 
     6    1    7 1 
     7    2    3 1 
     8    2    5 2 
     9    3    4 1 
    10    4   11 1 
    11    4   10 1 
    12   11   14 1 
    13   11   12 1 
