@<TRIPOS>MOLECULE
C:\Users\Praveer\PycharmProjects\pdb_to_mol2_converter\data\pdb\etam.pdb
   12    11     0     0     0
SMALL
GASTEIGER

@<TRIPOS>ATOM
      1 N          -0.0220   -0.0570   -0.0300 N.4       1 ETA1        0.0000
      2 HN1        -0.3860   -1.0020    0.2000 H         1 ETA1        0.0000
      3 HN2        -0.3970    0.2630   -0.9440 H         1 ETA1        0.0000
      4 HN3        -0.3200    0.6270    0.7050 H         1 ETA1        0.0000
      5 C1          1.4800   -0.0210   -0.0240 C.3       1 ETA1        0.0000
      6 H11         1.8540   -0.5510   -0.9120 H         1 ETA1        0.0000
      7 H12         1.8190   -0.5630    0.8750 H         1 ETA1        0.0000
      8 C5          1.9900    1.4360    0.0340 C.3       1 ETA1        0.0000
      9 H51         1.8240    1.9360   -0.9480 H         1 ETA1        0.0000
     10 H52         3.0880    1.4300    0.2310 H         1 ETA1        0.0000
     11 OH1         1.3250    2.1850    1.0530 O.3       1 ETA1        0.0000
     12 HO1         1.7760    3.0370    1.1540 H         1 ETA1        0.0000
@<TRIPOS>BOND
     1    9    8 1 
     2    3    1 1 
     3    6    5 1 
     4    1    5 1 
     5    1    2 1 
     6    1    4 1 
     7    5    8 1 
     8    5    7 1 
     9    8   10 1 
    10    8   11 1 
    11   11   12 1 
