@<TRIPOS>MOLECULE
C:\Users\Praveer\PycharmProjects\pdb_to_mol2_converter\data\pdb\etap.pdb
   54    53     0     0     0
SMALL
GASTEIGER

@<TRIPOS>ATOM
      1 H1          0.0560   -0.0970    0.1100 H         1 ETA1        0.0000
      2 O1          1.0090   -0.0420    0.1520 O.3       1 ETA1        0.0000
      3 O2          0.4860    2.1180   -0.1790 O.2       1 ETA1        0.0000
      4 C1          1.3500    1.2780   -0.0150 C.2       1 ETA1        0.0000
      5 C2          2.8560    1.5000    0.0340 C.3       1 ETA1        0.0000
      6 H2R         3.3260    0.8910   -0.7670 H         1 ETA1        0.0000
      7 H2S         3.2290    1.1400    1.0160 H         1 ETA1        0.0000
      8 C3          3.2280    2.9860   -0.1550 C.3       1 ETA1        0.0000
      9 H3R         2.7430    3.6010    0.6370 H         1 ETA1        0.0000
     10 H3S         2.8490    3.3450   -1.1390 H         1 ETA1        0.0000
     11 C4          4.7450    3.2090   -0.0970 C.3       1 ETA1        0.0000
     12 H4R         5.2320    2.5860   -0.8810 H         1 ETA1        0.0000
     13 H4S         5.1290    2.8710    0.8920 H         1 ETA1        0.0000
     14 C5          5.1420    4.6760   -0.3130 C.3       1 ETA1        0.0000
     15 H5R         4.6720    5.3060    0.4750 H         1 ETA1        0.0000
     16 H5S         4.7510    5.0170   -1.2970 H         1 ETA1        0.0000
     17 C6          6.6640    4.8810   -0.2800 C.3       1 ETA1        0.0000
     18 H6R         7.1280    4.2070   -1.0350 H         1 ETA1        0.0000
     19 H6S         7.0430    4.5790    0.7230 H         1 ETA1        0.0000
     20 C7          7.0690    6.3370   -0.5710 C.3       1 ETA1        0.0000
     21 H7R         6.5420    6.9940    0.1550 H         1 ETA1        0.0000
     22 H7S         6.6890    6.6080   -1.5820 H         1 ETA1        0.0000
     23 C8          8.5680    6.5120   -0.5260 C.2       1 ETA1        0.0000
     24 H8R         9.1240    5.7900   -1.1440 H         1 ETA1        0.0000
     25 C9          9.2690    7.4210    0.1810 C.2       1 ETA1        0.0000
     26 H9R        10.3670    7.4050    0.0960 H         1 ETA1        0.0000
     27 C10         8.7290    8.5000    1.0910 C.3       1 ETA1        0.0000
     28 H10R        9.1180    8.3330    2.1190 H         1 ETA1        0.0000
     29 H10S        7.6250    8.4390    1.1890 H         1 ETA1        0.0000
     30 C11         9.1660    9.8690    0.6210 C.2       1 ETA1        0.0000
     31 H11R       10.2490   10.0510    0.7040 H         1 ETA1        0.0000
     32 C12         8.3920   10.8630    0.1370 C.2       1 ETA1        0.0000
     33 H12R        8.8870   11.7980   -0.1720 H         1 ETA1        0.0000
     34 C13         6.8940   10.8480   -0.0670 C.3       1 ETA1        0.0000
     35 H13R        6.4400    9.9210    0.3440 H         1 ETA1        0.0000
     36 H13S        6.6900   10.8190   -1.1610 H         1 ETA1        0.0000
     37 C14         6.2220   12.0730    0.5100 C.2       1 ETA1        0.0000
     38 H14R        6.8310   12.9910    0.5150 H         1 ETA1        0.0000
     39 C15         4.9720   12.1380    1.0110 C.2       1 ETA1        0.0000
     40 H15R        4.6200   13.1020    1.4100 H         1 ETA1        0.0000
     41 C16         3.9730   11.0060    1.0900 C.3       1 ETA1        0.0000
     42 H16R        3.9430   10.6370    2.1400 H         1 ETA1        0.0000
     43 H16S        4.3020   10.1410    0.4730 H         1 ETA1        0.0000
     44 C17         2.5780   11.4280    0.6920 C.2       1 ETA1        0.0000
     45 H17R        2.3570   12.5040    0.7810 H         1 ETA1        0.0000
     46 C18         1.6090   10.6190    0.2250 C.2       1 ETA1        0.0000
     47 H18R        0.6310   11.0580   -0.0270 H         1 ETA1        0.0000
     48 C19         1.6950    9.1250    0.0320 C.3       1 ETA1        0.0000
     49 H19R        2.6520    8.7060    0.4160 H         1 ETA1        0.0000
     50 H19S        1.6480    8.8810   -1.0530 H         1 ETA1        0.0000
     51 C20         0.5320    8.4210    0.7470 C.3       1 ETA1        0.0000
     52 H20R       -0.4470    8.7590    0.3440 H         1 ETA1        0.0000
     53 H20S        0.5560    8.6330    1.8380 H         1 ETA1        0.0000
     54 H20T        0.6010    7.3210    0.6030 H         1 ETA1        0.0000
@<TRIPOS>BOND
     1   22   20 1 
     2   16   14 1 
     3   36   34 1 
     4   24   23 1 
     5   10    8 1 
     6   50   48 1 
     7   18   17 1 
     8   12   11 1 
     9    6    5 1 
    10   20   23 1 
    11   20   17 1 
    12   20   21 1 
    13   23   25 2 
    14   14   17 1 
    15   14   11 1 
    16   14   15 1 
    17   17   19 1 
    18    3    4 2 
    19   33   32 1 
    20    8   11 1 
    21    8    5 1 
    22    8    9 1 
    23   11   13 1 
    24   34   32 1 
    25   34   35 1 
    26   34   37 1 
    27   47   46 1 
    28    4    5 1 
    29    4    2 1 
    30   48   46 1 
    31   48   49 1 
    32   48   51 1 
    33    5    7 1 
    34   26   25 1 
    35    1    2 1 
    36   32   30 2 
    37   25   27 1 
    38   46   44 2 
    39   52   51 1 
    40   43   41 1 
    41   37   38 1 
    42   37   39 2 
    43   54   51 1 
    44   30   31 1 
    45   30   27 1 
    46   44   45 1 
    47   44   41 1 
    48   51   53 1 
    49   39   41 1 
    50   39   40 1 
    51   41   42 1 
    52   27   29 1 
    53   27   28 1 
