@<TRIPOS>MOLECULE
C:\Users\Praveer\PycharmProjects\pdb_to_mol2_converter\data\pdb\ete.pdb
   55    54     0     0     0
SMALL
GASTEIGER

@<TRIPOS>ATOM
      1 O1          0.0340   -0.0800   -0.0200 O.co2     1 ETE1        0.0000
      2 O2          2.0230   -1.0740   -0.0950 O.co2     1 ETE1        0.0000
      3 C1          1.2930   -0.0520   -0.0380 C.2       1 ETE1        0.0000
      4 C2          1.9480    1.3300    0.0140 C.3       1 ETE1        0.0000
      5 H2R         1.6020    1.8190    0.9460 H         1 ETE1        0.0000
      6 H2S         1.5660    1.9060   -0.8530 H         1 ETE1        0.0000
      7 C3          3.4920    1.2800   -0.0200 C.3       1 ETE1        0.0000
      8 H3R         3.8160    0.7800   -0.9600 H         1 ETE1        0.0000
      9 H3S         3.8510    0.6560    0.8290 H         1 ETE1        0.0000
     10 C4          4.1210    2.6760    0.0690 C.3       1 ETE1        0.0000
     11 H4R         3.7950    3.1510    1.0210 H         1 ETE1        0.0000
     12 H4S         3.7350    3.2970   -0.7700 H         1 ETE1        0.0000
     13 C5          5.6550    2.6490    0.0140 C.3       1 ETE1        0.0000
     14 H5R         5.9730    2.2020   -0.9540 H         1 ETE1        0.0000
     15 H5S         6.0330    1.9920    0.8300 H         1 ETE1        0.0000
     16 C6          6.2700    4.0470    0.1620 C.3       1 ETE1        0.0000
     17 H6R         5.9590    4.4720    1.1430 H         1 ETE1        0.0000
     18 H6S         5.8620    4.7070   -0.6370 H         1 ETE1        0.0000
     19 C7          7.8020    4.0460    0.0770 C.3       1 ETE1        0.0000
     20 H7R         8.1110    3.6680   -0.9230 H         1 ETE1        0.0000
     21 H7S         8.2110    3.3500    0.8440 H         1 ETE1        0.0000
     22 C8          8.3940    5.4440    0.3000 C.3       1 ETE1        0.0000
     23 H8R         8.1170    5.7930    1.3210 H         1 ETE1        0.0000
     24 H8S         7.9430    6.1520   -0.4320 H         1 ETE1        0.0000
     25 C9          9.9220    5.4850    0.1530 C.3       1 ETE1        0.0000
     26 H9R        10.1850    5.2020   -0.8910 H         1 ETE1        0.0000
     27 H9S        10.3700    4.7280    0.8360 H         1 ETE1        0.0000
     28 C10        10.4950    6.8780    0.4780 C.3       1 ETE1        0.0000
     29 H10R       10.2530    7.1130    1.5390 H         1 ETE1        0.0000
     30 H10S        9.9530    7.6190   -0.1510 H         1 ETE1        0.0000
     31 C11        11.9880    6.9440    0.2660 C.2       1 ETE1        0.0000
     32 H11R       12.5400    6.0580    0.6190 H         1 ETE1        0.0000
     33 C12        12.6780    7.9450   -0.3170 C.2       1 ETE1        0.0000
     34 H12R       13.7700    7.8360   -0.4120 H         1 ETE1        0.0000
     35 C13        12.1130    9.2390   -0.8570 C.3       1 ETE1        0.0000
     36 H13R       11.0680    9.3890   -0.5120 H         1 ETE1        0.0000
     37 H13S       12.0580    9.1630   -1.9650 H         1 ETE1        0.0000
     38 C14        12.9690   10.4350   -0.5020 C.2       1 ETE1        0.0000
     39 H14R       14.0560   10.2560   -0.5280 H         1 ETE1        0.0000
     40 C15        12.5370   11.6690   -0.1700 C.2       1 ETE1        0.0000
     41 H15R       13.2910   12.4330    0.0780 H         1 ETE1        0.0000
     42 C16        11.1030   12.1390   -0.0830 C.3       1 ETE1        0.0000
     43 H16R       10.8180   12.1980    0.9910 H         1 ETE1        0.0000
     44 H16S       10.4110   11.3970   -0.5400 H         1 ETE1        0.0000
     45 C17        10.8810   13.4950   -0.7130 C.2       1 ETE1        0.0000
     46 H17R       11.7840   14.1010   -0.8910 H         1 ETE1        0.0000
     47 C18         9.6890   13.9980   -1.0880 C.2       1 ETE1        0.0000
     48 H18R        9.6530   15.0010   -1.5400 H         1 ETE1        0.0000
     49 C19         8.3440   13.3320   -0.9230 C.3       1 ETE1        0.0000
     50 H19R        8.4130   12.3980   -0.3200 H         1 ETE1        0.0000
     51 H19S        7.9440   13.0410   -1.9200 H         1 ETE1        0.0000
     52 C20         7.3420   14.2760   -0.2430 C.3       1 ETE1        0.0000
     53 H20R        7.1820   15.1930   -0.8500 H         1 ETE1        0.0000
     54 H20S        7.7030   14.5780    0.7640 H         1 ETE1        0.0000
     55 H20T        6.3610   13.7700   -0.1190 H         1 ETE1        0.0000
@<TRIPOS>BOND
     1   37   35 1 
     2   51   49 1 
     3   48   47 1 
     4   47   49 1 
     5   47   45 2 
     6    8    7 1 
     7   14   13 1 
     8   49   50 1 
     9   49   52 1 
    10   20   19 1 
    11   46   45 1 
    12   26   25 1 
    13   35   36 1 
    14   35   38 1 
    15   35   33 1 
    16    6    4 1 
    17   53   52 1 
    18   12   10 1 
    19   45   42 1 
    20   18   16 1 
    21   44   42 1 
    22   39   38 1 
    23   38   40 2 
    24   24   22 1 
    25   34   33 1 
    26   33   31 2 
    27   52   55 1 
    28   52   54 1 
    29   40   42 1 
    30   40   41 1 
    31   30   28 1 
    32    2    3 ar
    33   42   43 1 
    34    3    1 ar
    35    3    4 1 
    36    7    4 1 
    37    7   10 1 
    38    7    9 1 
    39   13   10 1 
    40   13   16 1 
    41   13   15 1 
    42    4    5 1 
    43   10   11 1 
    44   19   16 1 
    45   19   22 1 
    46   19   21 1 
    47   25   22 1 
    48   25   28 1 
    49   25   27 1 
    50   16   17 1 
    51   31   28 1 
    52   31   32 1 
    53   22   23 1 
    54   28   29 1 
