@<TRIPOS>MOLECULE
C:\Users\Praveer\PycharmProjects\pdb_to_mol2_converter\data\pdb\etep.pdb
   56    55     0     0     0
SMALL
GASTEIGER

@<TRIPOS>ATOM
      1 H1         -0.0650    0.0740    0.0070 H         1 ETE1        0.0000
      2 O1          0.8910    0.0420   -0.0120 O.3       1 ETE1        0.0000
      3 O2          0.5530    2.2630    0.0610 O.2       1 ETE1        0.0000
      4 C1          1.3440    1.3400    0.0180 C.2       1 ETE1        0.0000
      5 C2          2.8660    1.4310   -0.0090 C.3       1 ETE1        0.0000
      6 H2R         3.2280    0.9410   -0.9360 H         1 ETE1        0.0000
      7 H2S         3.2650    0.8750    0.8650 H         1 ETE1        0.0000
      8 C3          3.3540    2.8960    0.0340 C.3       1 ETE1        0.0000
      9 H3R         2.9930    3.3840    0.9680 H         1 ETE1        0.0000
     10 H3S         2.9270    3.4600   -0.8260 H         1 ETE1        0.0000
     11 C4          4.8840    2.9990   -0.0210 C.3       1 ETE1        0.0000
     12 H4R         5.2460    2.5310   -0.9640 H         1 ETE1        0.0000
     13 H4S         5.3210    2.4300    0.8290 H         1 ETE1        0.0000
     14 C5          5.3840    4.4500    0.0410 C.3       1 ETE1        0.0000
     15 H5R         5.0500    4.9110    0.9970 H         1 ETE1        0.0000
     16 H5S         4.9280    5.0300   -0.7920 H         1 ETE1        0.0000
     17 C6          6.9120    4.5440   -0.0600 C.3       1 ETE1        0.0000
     18 H6R         7.2380    4.1040   -1.0300 H         1 ETE1        0.0000
     19 H6S         7.3690    3.9390    0.7550 H         1 ETE1        0.0000
     20 C7          7.4360    5.9840    0.0360 C.3       1 ETE1        0.0000
     21 H7R         7.1510    6.4110    1.0230 H         1 ETE1        0.0000
     22 H7S         6.9550    6.6030   -0.7540 H         1 ETE1        0.0000
     23 C8          8.9600    6.0560   -0.1280 C.3       1 ETE1        0.0000
     24 H8R         9.2330    5.6630   -1.1330 H         1 ETE1        0.0000
     25 H8S         9.4400    5.3990    0.6320 H         1 ETE1        0.0000
     26 C9          9.5200    7.4780    0.0230 C.3       1 ETE1        0.0000
     27 H9R         9.2930    7.8440    1.0500 H         1 ETE1        0.0000
     28 H9S         9.0030    8.1470   -0.7010 H         1 ETE1        0.0000
     29 C10        11.0410    7.5240   -0.2230 C.3       1 ETE1        0.0000
     30 H10R       11.2350    7.1750   -1.2620 H         1 ETE1        0.0000
     31 H10S       11.5130    6.7840    0.4620 H         1 ETE1        0.0000
     32 C11        11.6110    8.9090   -0.0340 C.2       1 ETE1        0.0000
     33 H11R       10.9970    9.7190   -0.4570 H         1 ETE1        0.0000
     34 C12        12.7560    9.2300    0.6010 C.2       1 ETE1        0.0000
     35 H12R       13.0320   10.2950    0.6670 H         1 ETE1        0.0000
     36 C13        13.7390    8.2720    1.2360 C.3       1 ETE1        0.0000
     37 H13R       13.5390    7.2290    0.9110 H         1 ETE1        0.0000
     38 H13S       13.5800    8.2800    2.3360 H         1 ETE1        0.0000
     39 C14        15.1740    8.6590    0.9570 C.2       1 ETE1        0.0000
     40 H14R       15.3940    9.7330    1.0660 H         1 ETE1        0.0000
     41 C15        16.1850    7.8380    0.6050 C.2       1 ETE1        0.0000
     42 H15R       17.1750    8.2850    0.4220 H         1 ETE1        0.0000
     43 C16        16.1200    6.3400    0.4130 C.3       1 ETE1        0.0000
     44 H16R       16.0870    6.1290   -0.6790 H         1 ETE1        0.0000
     45 H16S       15.1770    5.9250    0.8310 H         1 ETE1        0.0000
     46 C17        17.3070    5.6160    1.0060 C.2       1 ETE1        0.0000
     47 H17R       18.2160    6.2210    1.1530 H         1 ETE1        0.0000
     48 C18        17.3330    4.3220    1.3810 C.2       1 ETE1        0.0000
     49 H18R       18.2630    3.9120    1.8050 H         1 ETE1        0.0000
     50 C19        16.2070    3.3270    1.2530 C.3       1 ETE1        0.0000
     51 H19R       15.3580    3.7320    0.6560 H         1 ETE1        0.0000
     52 H19S       15.8030    3.0820    2.2610 H         1 ETE1        0.0000
     53 C20        16.6930    2.0320    0.5850 C.3       1 ETE1        0.0000
     54 H20R       17.4940    1.5490    1.1860 H         1 ETE1        0.0000
     55 H20S       17.0890    2.2360   -0.4330 H         1 ETE1        0.0000
     56 H20T       15.8520    1.3110    0.4900 H         1 ETE1        0.0000
@<TRIPOS>BOND
     1   30   29 1 
     2   24   23 1 
     3   18   17 1 
     4   12   11 1 
     5    6    5 1 
     6   10    8 1 
     7   16   14 1 
     8   22   20 1 
     9   28   26 1 
    10   44   43 1 
    11   33   32 1 
    12   55   53 1 
    13   29   32 1 
    14   29   26 1 
    15   29   31 1 
    16   23   26 1 
    17   23   20 1 
    18   23   25 1 
    19   17   20 1 
    20   17   14 1 
    21   17   19 1 
    22   32   34 2 
    23   11    8 1 
    24   11   14 1 
    25   11   13 1 
    26    2    1 1 
    27    2    4 1 
    28    5    4 1 
    29    5    8 1 
    30    5    7 1 
    31    4    3 2 
    32   26   27 1 
    33    8    9 1 
    34   20   21 1 
    35   14   15 1 
    36   43   41 1 
    37   43   45 1 
    38   43   46 1 
    39   42   41 1 
    40   56   53 1 
    41   53   54 1 
    42   53   50 1 
    43   34   35 1 
    44   34   36 1 
    45   41   39 2 
    46   51   50 1 
    47   37   36 1 
    48   39   40 1 
    49   39   36 1 
    50   46   47 1 
    51   46   48 2 
    52   36   38 1 
    53   50   48 1 
    54   50   52 1 
    55   48   49 1 
