@<TRIPOS>MOLECULE
C:\Users\Praveer\PycharmProjects\pdb_to_mol2_converter\data\pdb\etha.pdb
    8     7     0     0     0
SMALL
GASTEIGER

@<TRIPOS>ATOM
      1 H13        -2.0800    0.0260    0.0000 H         1 ETH1        0.0000
      2 C1         -1.1120   -0.4670    0.0000 C.3       1 ETH1        0.0000
      3 C2          0.0000    0.5580    0.0000 C.3       1 ETH1        0.0000
      4 H21         1.2140   -0.0830    0.0000 H         1 ETH1        0.0000
      5 H22        -0.0390    1.1870    0.8800 H         1 ETH1        0.0000
      6 H23        -0.0390    1.1870   -0.8800 H         1 ETH1        0.0000
      7 H11        -1.0470   -1.0980    0.8790 H         1 ETH1        0.0000
      8 H12        -1.0470   -1.0980   -0.8790 H         1 ETH1        0.0000
@<TRIPOS>BOND
     1    6    3 1 
     2    8    2 1 
     3    1    2 1 
     4    2    3 1 
     5    2    7 1 
     6    3    4 1 
     7    3    5 1 
