@<TRIPOS>MOLECULE
C:\Users\Praveer\PycharmProjects\pdb_to_mol2_converter\data\pdb\ethe.pdb
    6     5     0     0     0
SMALL
GASTEIGER

@<TRIPOS>ATOM
      1 C1          1.1040    0.0000    0.0000 C.2       1 ETH1        0.0000
      2 H11         1.6100   -0.9800   -0.0000 H         1 ETH1        0.0000
      3 H12         0.0000    0.0010   -0.0000 H         1 ETH1        0.0000
      4 C2          1.8000    1.1410   -0.0000 C.2       1 ETH1        0.0000
      5 H21         2.9030    1.1410    0.0000 H         1 ETH1        0.0000
      6 H22         1.2930    2.1220    0.0000 H         1 ETH1        0.0000
@<TRIPOS>BOND
     1    1    2 1 
     2    1    3 1 
     3    1    4 2 
     4    4    5 1 
     5    4    6 1 
