@<TRIPOS>MOLECULE
C:\Users\Praveer\PycharmProjects\pdb_to_mol2_converter\data\pdb\eto.pdb
    8     7     0     0     0
SMALL
GASTEIGER

@<TRIPOS>ATOM
      1 OG          1.2950    9.0930    9.5280 O.3       1 ETO1        0.0000
      2 CB          1.8910    9.0630    8.3470 C.3       1 ETO1        0.0000
      3 CA          1.8360   10.3900    7.5900 C.3       1 ETO1        0.0000
      4 HB1         1.4710    8.3010    7.6480 H         1 ETO1        0.0000
      5 HB2         2.9710    8.7870    8.3930 H         1 ETO1        0.0000
      6 HA1         2.3470   10.3130    6.6110 H         1 ETO1        0.0000
      7 HA2         2.3220   11.1790    8.2030 H         1 ETO1        0.0000
      8 HA3         0.7750   10.6770    7.4350 H         1 ETO1        0.0000
@<TRIPOS>BOND
     1    6    3 1 
     2    8    3 1 
     3    3    7 1 
     4    3    2 1 
     5    4    2 1 
     6    2    5 1 
     7    2    1 1 
