@<TRIPOS>MOLECULE
C:\Users\Praveer\PycharmProjects\pdb_to_mol2_converter\data\pdb\etob.pdb
   19    19     0     0     0
SMALL
GASTEIGER

@<TRIPOS>ATOM
      1 CG         -0.0020   -0.0040    0.0000 C.ar      1 ETO1        0.0000
      2 HG         -0.5440   -0.9390    0.0000 H         1 ETO1        0.0000
      3 CD1         1.3980   -0.0070    0.0000 C.ar      1 ETO1        0.0000
      4 HD1         1.9390   -0.9430    0.0000 H         1 ETO1        0.0000
      5 CD2        -0.7000    1.2100    0.0000 C.ar      1 ETO1        0.0000
      6 HD2        -1.7810    1.2100    0.0000 H         1 ETO1        0.0000
      7 CE1         2.0970    1.2070   -0.0000 C.ar      1 ETO1        0.0000
      8 HE1         3.1760    1.2130   -0.0000 H         1 ETO1        0.0000
      9 CE2         0.0020    2.4250   -0.0000 C.ar      1 ETO1        0.0000
     10 HE2        -0.5660    3.3400   -0.0000 H         1 ETO1        0.0000
     11 CZ          1.4140    2.4310   -0.0000 C.ar      1 ETO1        0.0000
     12 OZ          2.1790    3.6170   -0.0010 O.3       1 ETO1        0.0000
     13 C1          1.4760    4.8540   -0.0010 C.3       1 ETO1        0.0000
     14 H1A         0.8400    4.9380    0.9100 H         1 ETO1        0.0000
     15 H1B         0.8400    4.9370   -0.9120 H         1 ETO1        0.0000
     16 C2          2.5070    5.9820   -0.0020 C.3       1 ETO1        0.0000
     17 H2A         3.1540    5.9090   -0.9020 H         1 ETO1        0.0000
     18 H2B         3.1540    5.9090    0.8990 H         1 ETO1        0.0000
     19 H2C         2.0060    6.9730   -0.0020 H         1 ETO1        0.0000
@<TRIPOS>BOND
     1   15   13 1 
     2   17   16 1 
     3   16   19 1 
     4   16   13 1 
     5   16   18 1 
     6   12   13 1 
     7   12   11 1 
     8   13   14 1 
     9    1    2 1 
    10    1    3 ar
    11    1    5 ar
    12    3    4 1 
    13    3    7 ar
    14    5    6 1 
    15    5    9 ar
    16    7    8 1 
    17    7   11 ar
    18    9   10 1 
    19    9   11 ar
