@<TRIPOS>MOLECULE
C:\Users\Praveer\PycharmProjects\pdb_to_mol2_converter\data\pdb\etoh.pdb
    9     8     0     0     0
SMALL
GASTEIGER

@<TRIPOS>ATOM
      1 C1          1.4340   -0.0130    0.0020 C.3       1 ETO1        0.0000
      2 O1          0.0140    0.0170    0.0030 O.3       1 ETO1        0.0000
      3 HO1        -0.2970   -0.8920    0.0020 H         1 ETO1        0.0000
      4 H11         1.7990   -0.5470   -0.9050 H         1 ETO1        0.0000
      5 H12         1.8000   -0.5480    0.9080 H         1 ETO1        0.0000
      6 C2          1.9390    1.4260    0.0020 C.3       1 ETO1        0.0000
      7 H21         1.5710    1.9640    0.9020 H         1 ETO1        0.0000
      8 H22         1.5700    1.9640   -0.8980 H         1 ETO1        0.0000
      9 H23         3.0480    1.4530    0.0010 H         1 ETO1        0.0000
@<TRIPOS>BOND
     1    4    1 1 
     2    8    6 1 
     3    9    6 1 
     4    1    6 1 
     5    1    2 1 
     6    1    5 1 
     7    3    2 1 
     8    6    7 1 
