@<TRIPOS>MOLECULE
C:\Users\Praveer\PycharmProjects\pdb_to_mol2_converter\data\pdb\etpp.pdb
   19    18     0     0     0
SMALL
GASTEIGER

@<TRIPOS>ATOM
      1 N           0.1320   -0.0770   -0.1170 N.4       1 ETP1        0.0000
      2 HN1        -0.4420   -0.8110   -0.5390 H         1 ETP1        0.0000
      3 HN2        -0.1770    0.8910   -0.3590 H         1 ETP1        0.0000
      4 HN3        -0.0670   -0.0530    0.9380 H         1 ETP1        0.0000
      5 C9          1.6030   -0.0930   -0.3330 C.3       1 ETP1        0.0000
      6 H91         1.8240   -0.6920   -1.2250 H         1 ETP1        0.0000
      7 H92         2.0620   -0.5910    0.5370 H         1 ETP1        0.0000
      8 C8          2.1570    1.3500   -0.4840 C.3       1 ETP1        0.0000
      9 H81         2.4150    1.5080   -1.5540 H         1 ETP1        0.0000
     10 H82         3.1200    1.4100    0.0790 H         1 ETP1        0.0000
     11 O11         1.2250    2.3740   -0.1170 O.3       1 ETP1        0.0000
     12 P1          1.4180    3.2260    1.3050 P.3       1 ETP1        0.0000
     13 O12         0.5130    2.4220    2.3960 O.3       1 ETP1        0.0000
     14 O13         0.7910    4.5920    1.0550 O.2       1 ETP1        0.0000
     15 O14         2.8970    3.2130    1.6750 O.3       1 ETP1        0.0000
     16 P2          0.1760    0.9290    2.9080 P.3       1 ETP1        0.0000
     17 O2         -0.2050    1.1050    4.5050 O.3       1 ETP1        0.0000
     18 O23        -1.0280    0.4510    2.1110 O.2       1 ETP1        0.0000
     19 O24         1.4010    0.0600    2.7130 O.3       1 ETP1        0.0000
@<TRIPOS>BOND
     1    9    8 1 
     2    6    5 1 
     3    2    1 1 
     4    8    5 1 
     5    8   11 1 
     6    8   10 1 
     7    3    1 1 
     8    5    1 1 
     9    5    7 1 
    10    1    4 1 
    11   11   12 1 
    12   14   12 2 
    13   12   15 1 
    14   12   13 1 
    15   18   16 2 
    16   13   16 1 
    17   19   16 1 
    18   16   17 1 
