@<TRIPOS>MOLECULE
C:\Users\Praveer\PycharmProjects\pdb_to_mol2_converter\data\pdb\etrz.pdb
   14    14     0     0     0
SMALL
GASTEIGER

@<TRIPOS>ATOM
      1 N1         -0.0330   -0.0150   -0.0300 N.ar      1 ETR1        0.0000
      2 N2          1.3220    0.0040    0.0120 N.ar      1 ETR1        0.0000
      3 N3          1.6280    1.2740    0.0360 N.ar      1 ETR1        0.0000
      4 C4          0.4790    2.0460    0.0140 C.ar      1 ETR1        0.0000
      5 H4          0.5580    3.1260    0.0330 H         1 ETR1        0.0000
      6 C5         -0.5940    1.2310   -0.0280 C.ar      1 ETR1        0.0000
      7 H5         -1.6510    1.4390   -0.0510 H         1 ETR1        0.0000
      8 C6         -0.7100   -1.3150   -0.0130 C.3       1 ETR1        0.0000
      9 H61        -0.0860   -2.0280   -0.6000 H         1 ETR1        0.0000
     10 H62        -1.6580   -1.2030   -0.5840 H         1 ETR1        0.0000
     11 C7         -1.0380   -1.9770    1.3390 C.3       1 ETR1        0.0000
     12 H71        -1.7130   -1.3290    1.9370 H         1 ETR1        0.0000
     13 H72        -0.1040   -2.1390    1.9200 H         1 ETR1        0.0000
     14 H73        -1.5320   -2.9600    1.1840 H         1 ETR1        0.0000
@<TRIPOS>BOND
     1    9    8 1 
     2   10    8 1 
     3    7    6 1 
     4    1    6 ar
     5    1    8 1 
     6    1    2 ar
     7    6    4 ar
     8    8   11 1 
     9    2    3 ar
    10    4    5 1 
    11    4    3 ar
    12   14   11 1 
    13   11   13 1 
    14   11   12 1 
