@<TRIPOS>MOLECULE
C:\Users\Praveer\PycharmProjects\pdb_to_mol2_converter\data\pdb\etsh.pdb
    9     8     0     0     0
SMALL
GASTEIGER

@<TRIPOS>ATOM
      1 H1          1.4700   -0.5500   -0.8890 H         1 ETS1        0.0000
      2 H2         -0.0010   -0.0020   -0.0050 H         1 ETS1        0.0000
      3 H3          1.4570   -0.5330    0.9130 H         1 ETS1        0.0000
      4 CM1         1.1100    0.0050    0.0040 C.3       1 ETS1        0.0000
      5 H4          1.3090    1.9460   -0.9410 H         1 ETS1        0.0000
      6 H5          2.7570    1.4090   -0.0370 H         1 ETS1        0.0000
      7 CM2         1.6440    1.4410   -0.0060 C.3       1 ETS1        0.0000
      8 S3          1.1060    2.4010    1.4400 S.3       1 ETS1        0.0000
      9 H6         -0.1900    2.3110    1.1770 H         1 ETS1        0.0000
@<TRIPOS>BOND
     1    5    7 1 
     2    1    4 1 
     3    6    7 1 
     4    7    4 1 
     5    7    8 1 
     6    2    4 1 
     7    4    3 1 
     8    9    8 1 
