@<TRIPOS>MOLECULE
C:\Users\Praveer\PycharmProjects\pdb_to_mol2_converter\data\pdb\fbib.pdb
   30    30     0     0     0
SMALL
GASTEIGER

@<TRIPOS>ATOM
      1 CG          0.0020   -0.0030   -0.0070 C.ar      1 FBI1        0.0000
      2 CD1         1.4030    0.0010    0.0030 C.ar      1 FBI1        0.0000
      3 HD1         1.9370   -0.9380   -0.0030 H         1 FBI1        0.0000
      4 CD2        -0.6920    1.2140   -0.0160 C.ar      1 FBI1        0.0000
      5 HD2        -1.7710    1.1870   -0.0360 H         1 FBI1        0.0000
      6 CE1         2.1030    1.2140    0.0100 C.ar      1 FBI1        0.0000
      7 HE1         3.1830    1.2130    0.0160 H         1 FBI1        0.0000
      8 CE2        -0.0070    2.4440   -0.0100 C.ar      1 FBI1        0.0000
      9 CC         -0.8050    3.7420   -0.0250 C.3       1 FBI1        0.0000
     10 HC         -0.1460    4.6390   -0.0130 H         1 FBI1        0.0000
     11 C1         -1.6420    3.8040   -1.3190 C.3       1 FBI1        0.0000
     12 H1A        -2.3860    2.9800   -1.3560 H         1 FBI1        0.0000
     13 H1B        -0.9900    3.7270   -2.2150 H         1 FBI1        0.0000
     14 H1C        -2.1960    4.7650   -1.3710 H         1 FBI1        0.0000
     15 C2         -1.6910    3.8080    1.2380 C.3       1 FBI1        0.0000
     16 H2A        -1.0730    3.7310    2.1570 H         1 FBI1        0.0000
     17 H2B        -2.4380    2.9870    1.2450 H         1 FBI1        0.0000
     18 H2C        -2.2420    4.7720    1.2660 H         1 FBI1        0.0000
     19 CZ          1.4090    2.4280    0.0050 C.ar      1 FBI1        0.0000
     20 OH          2.1740    3.6160    0.0080 O.3       1 FBI1        0.0000
     21 HH          1.5560    4.3470   -0.0210 H         1 FBI1        0.0000
     22 CB         -0.7610   -1.3000   -0.0250 C.3       1 FBI1        0.0000
     23 HB1        -1.6280   -1.2130    0.6660 H         1 FBI1        0.0000
     24 HB2        -0.1060   -2.1220    0.3410 H         1 FBI1        0.0000
     25 CA         -1.2480   -1.6070   -1.4610 C.3       1 FBI1        0.0000
     26 HA1        -0.3860   -1.7170   -2.1510 H         1 FBI1        0.0000
     27 HA2        -1.9020   -0.7930   -1.8360 H         1 FBI1        0.0000
     28 CD         -2.0360   -2.9120   -1.5110 C.2       1 FBI1        0.0000
     29 OD1        -3.2440   -2.8120   -1.8460 O.co2     1 FBI1        0.0000
     30 OD2        -1.3920   -3.9510   -1.2150 O.co2     1 FBI1        0.0000
@<TRIPOS>BOND
     1   13   11 1 
     2   26   25 1 
     3   29   28 ar
     4   27   25 1 
     5   28   25 1 
     6   28   30 ar
     7   25   22 1 
     8   14   11 1 
     9   12   11 1 
    10   11    9 1 
    11    5    4 1 
    12    9   10 1 
    13    9    8 1 
    14    9   15 1 
    15   22    1 1 
    16   22   24 1 
    17   22   23 1 
    18   21   20 1 
    19    4    8 ar
    20    4    1 ar
    21    8   19 ar
    22    1    2 ar
    23    3    2 1 
    24    2    6 ar
    25   19   20 1 
    26   19    6 ar
    27    6    7 1 
    28   15   17 1 
    29   15   18 1 
    30   15   16 1 
