@<TRIPOS>MOLECULE
C:\Users\Praveer\PycharmProjects\pdb_to_mol2_converter\data\pdb\fenz.pdb
   22    24     0     0     0
SMALL
GASTEIGER

@<TRIPOS>ATOM
      1 C1          2.0930    1.2870    0.0000 C.ar      1 FEN1        0.0000
      2 H1          3.1730    1.2870    0.0000 H         1 FEN1        0.0000
      3 C2          1.3880    2.4980    0.0000 C.ar      1 FEN1        0.0000
      4 H2          1.9270    3.4350    0.0000 H         1 FEN1        0.0000
      5 C3         -0.0130    2.4980   -0.0000 C.ar      1 FEN1        0.0000
      6 H3         -0.5520    3.4350   -0.0000 H         1 FEN1        0.0000
      7 C4         -0.7180    1.2870   -0.0000 C.ar      1 FEN1        0.0000
      8 H4         -1.7980    1.2870   -0.0000 H         1 FEN1        0.0000
      9 C5         -0.0360    0.0660   -0.0000 C.ar      1 FEN1        0.0000
     10 N6         -0.7240   -1.0820   -0.0000 N.ar      1 FEN1        0.0000
     11 C7         -0.0360   -2.2290   -0.0000 C.ar      1 FEN1        0.0000
     12 C8         -0.7180   -3.4510   -0.0000 C.ar      1 FEN1        0.0000
     13 H8         -1.7980   -3.4510   -0.0000 H         1 FEN1        0.0000
     14 C9         -0.0130   -4.6620   -0.0000 C.ar      1 FEN1        0.0000
     15 H9         -0.5520   -5.5990   -0.0000 H         1 FEN1        0.0000
     16 C10         1.3880   -4.6620    0.0000 C.ar      1 FEN1        0.0000
     17 H10         1.9270   -5.5990    0.0000 H         1 FEN1        0.0000
     18 C11         2.0930   -3.4510    0.0000 C.ar      1 FEN1        0.0000
     19 H11         3.1730   -3.4510    0.0000 H         1 FEN1        0.0000
     20 C12         1.4110   -2.2290    0.0000 C.ar      1 FEN1        0.0000
     21 N13         2.0990   -1.0820    0.0000 N.ar      1 FEN1        0.0000
     22 C14         1.4110    0.0660    0.0000 C.ar      1 FEN1        0.0000
@<TRIPOS>BOND
     1    1    2 1 
     2    1    3 ar
     3    1   22 ar
     4    3    4 1 
     5    3    5 ar
     6    5    6 1 
     7    5    7 ar
     8    7    8 1 
     9    7    9 ar
    10    9   10 ar
    11    9   22 ar
    12   10   11 ar
    13   11   12 ar
    14   11   20 ar
    15   12   13 1 
    16   12   14 ar
    17   14   15 1 
    18   14   16 ar
    19   16   17 1 
    20   16   18 ar
    21   18   19 1 
    22   18   20 ar
    23   20   21 ar
    24   21   22 ar
