@<TRIPOS>MOLECULE
C:\Users\Praveer\PycharmProjects\pdb_to_mol2_converter\data\pdb\feoz.pdb
   23    25     0     0     0
SMALL
GASTEIGER

@<TRIPOS>ATOM
      1 C1          2.0800    1.2510    0.0360 C.ar      1 FEO1        0.0000
      2 H1          3.1600    1.2750    0.0150 H         1 FEO1        0.0000
      3 C2          1.3590    2.4540    0.0110 C.ar      1 FEO1        0.0000
      4 H2          1.8860    3.3970   -0.0240 H         1 FEO1        0.0000
      5 C3         -0.0430    2.4400    0.0250 C.ar      1 FEO1        0.0000
      6 H3         -0.5930    3.3690   -0.0010 H         1 FEO1        0.0000
      7 C4         -0.7340    1.2200    0.0650 C.ar      1 FEO1        0.0000
      8 H4         -1.8130    1.2010    0.0680 H         1 FEO1        0.0000
      9 C5         -0.0240    0.0160    0.1050 C.ar      1 FEO1        0.0000
     10 O6         -0.6720   -1.2030    0.1000 O.3       1 FEO1        0.0000
     11 C7         -0.0450   -2.2430   -0.5570 C.ar      1 FEO1        0.0000
     12 C8         -0.7750   -3.2220   -1.2390 C.ar      1 FEO1        0.0000
     13 H8         -1.8530   -3.1880   -1.2250 H         1 FEO1        0.0000
     14 C9         -0.1030   -4.2390   -1.9340 C.ar      1 FEO1        0.0000
     15 H9         -0.6680   -4.9970   -2.4570 H         1 FEO1        0.0000
     16 C10         1.2980   -4.2680   -1.9580 C.ar      1 FEO1        0.0000
     17 H10         1.8100   -5.0510   -2.5000 H         1 FEO1        0.0000
     18 C11         2.0390   -3.2830   -1.2880 C.ar      1 FEO1        0.0000
     19 H11         3.1180   -3.3130   -1.3190 H         1 FEO1        0.0000
     20 C12         1.3780   -2.2700   -0.5820 C.ar      1 FEO1        0.0000
     21 N13         2.1000   -1.2180    0.0640 N.pl3     1 FEO1        0.0000
     22 H13         3.0920   -1.1650   -0.1530 H         1 FEO1        0.0000
     23 C14         1.4000    0.0280    0.0890 C.ar      1 FEO1        0.0000
@<TRIPOS>BOND
     1   17   16 1 
     2   15   14 1 
     3   16   14 ar
     4   16   18 ar
     5   14   12 ar
     6   19   18 1 
     7   18   20 ar
     8   12   13 1 
     9   12   11 ar
    10   20   11 ar
    11   20   21 1 
    12   11   10 1 
    13   22   21 1 
    14    4    3 1 
    15    6    5 1 
    16    3    5 ar
    17    3    1 ar
    18    2    1 1 
    19    5    7 ar
    20    1   23 ar
    21   21   23 1 
    22    7    8 1 
    23    7    9 ar
    24   23    9 ar
    25   10    9 1 
