@<TRIPOS>MOLECULE
C:\Users\Praveer\PycharmProjects\pdb_to_mol2_converter\data\pdb\feth.pdb
    8     7     0     0     0
SMALL
GASTEIGER

@<TRIPOS>ATOM
      1 H13         1.4620   -0.5530    0.9000 H         1 FET1        0.0000
      2 C1          1.1090   -0.0020    0.0010 C.3       1 FET1        0.0000
      3 C2          1.6460    1.4230    0.0010 C.3       1 FET1        0.0000
      4 F21         3.0180    1.4090    0.0010 F         1 FET1        0.0000
      5 H22         1.3140    1.9740    0.8740 H         1 FET1        0.0000
      6 H23         1.3140    1.9740   -0.8720 H         1 FET1        0.0000
      7 H11         1.4620   -0.5520   -0.8990 H         1 FET1        0.0000
      8 H12        -0.0020   -0.0080    0.0010 H         1 FET1        0.0000
@<TRIPOS>BOND
     1    7    2 1 
     2    6    3 1 
     3    2    3 1 
     4    2    8 1 
     5    2    1 1 
     6    3    4 1 
     7    3    5 1 
