@<TRIPOS>MOLECULE
C:\Users\Praveer\PycharmProjects\pdb_to_mol2_converter\data\pdb\fetz.pdb
   23    25     0     0     0
SMALL
GASTEIGER

@<TRIPOS>ATOM
      1 C1          2.0730    1.1160    0.1050 C.ar      1 FET1        0.0000
      2 H1          3.1520    1.1140    0.1670 H         1 FET1        0.0000
      3 C2          1.4030    2.3280   -0.1150 C.ar      1 FET1        0.0000
      4 H2          1.9660    3.2460   -0.2110 H         1 FET1        0.0000
      5 C3          0.0060    2.3560   -0.2170 C.ar      1 FET1        0.0000
      6 H3         -0.5040    3.2930   -0.3910 H         1 FET1        0.0000
      7 C4         -0.7300    1.1700   -0.1000 C.ar      1 FET1        0.0000
      8 H4         -1.8070    1.1910   -0.1860 H         1 FET1        0.0000
      9 C5         -0.0710   -0.0390    0.1490 C.ar      1 FET1        0.0000
     10 S6         -0.9390   -1.5660    0.2510 S.3       1 FET1        0.0000
     11 C7          0.1960   -2.6390   -0.5600 C.ar      1 FET1        0.0000
     12 C8         -0.2340   -3.6530   -1.4230 C.ar      1 FET1        0.0000
     13 H8         -1.2900   -3.8270   -1.5660 H         1 FET1        0.0000
     14 C9          0.7060   -4.4560   -2.0830 C.ar      1 FET1        0.0000
     15 H9          0.3740   -5.2500   -2.7360 H         1 FET1        0.0000
     16 C10         2.0760   -4.2260   -1.9040 C.ar      1 FET1        0.0000
     17 H10         2.7960   -4.8450   -2.4190 H         1 FET1        0.0000
     18 C11         2.5150   -3.1900   -1.0650 C.ar      1 FET1        0.0000
     19 H11         3.5750   -3.0190   -0.9510 H         1 FET1        0.0000
     20 C12         1.5850   -2.3870   -0.3870 C.ar      1 FET1        0.0000
     21 N13         2.0500   -1.3090    0.4300 N.pl3     1 FET1        0.0000
     22 H13         3.0590   -1.2260    0.5090 H         1 FET1        0.0000
     23 C14         1.3480   -0.0780    0.2400 C.ar      1 FET1        0.0000
@<TRIPOS>BOND
     1   15   14 1 
     2   17   16 1 
     3   14   16 ar
     4   14   12 ar
     5   16   18 ar
     6   13   12 1 
     7   12   11 ar
     8   18   19 1 
     9   18   20 ar
    10   11   20 ar
    11   11   10 1 
    12    6    5 1 
    13   20   21 1 
    14    5    3 ar
    15    5    7 ar
    16    4    3 1 
    17    8    7 1 
    18    3    1 ar
    19    7    9 ar
    20    1    2 1 
    21    1   23 ar
    22    9   23 ar
    23    9   10 1 
    24   23   21 1 
    25   21   22 1 
