@<TRIPOS>MOLECULE
C:\Users\Praveer\PycharmProjects\pdb_to_mol2_converter\data\pdb\flrn.pdb
   23    25     0     0     0
SMALL
GASTEIGER

@<TRIPOS>ATOM
      1 C1          2.1110    1.1710    0.0240 C.ar      1 FLR1        0.0000
      2 H1          3.1890    1.1530    0.0500 H         1 FLR1        0.0000
      3 C2          1.4220    2.3950   -0.0050 C.ar      1 FLR1        0.0000
      4 H2          1.9720    3.3250   -0.0020 H         1 FLR1        0.0000
      5 C3          0.0190    2.4110   -0.0390 C.ar      1 FLR1        0.0000
      6 H3         -0.5000    3.3600   -0.0610 H         1 FLR1        0.0000
      7 C4         -0.7190    1.2180   -0.0430 C.ar      1 FLR1        0.0000
      8 H4         -1.7980    1.2200   -0.0680 H         1 FLR1        0.0000
      9 C5         -0.0220    0.0090   -0.0150 C.ar      1 FLR1        0.0000
     10 C6         -0.5230   -1.3780   -0.0100 C.ar      1 FLR1        0.0000
     11 C7         -1.8320   -1.8620   -0.0350 C.ar      1 FLR1        0.0000
     12 H7         -2.6630   -1.1750   -0.0640 H         1 FLR1        0.0000
     13 C8         -2.0270   -3.2510   -0.0210 C.ar      1 FLR1        0.0000
     14 H8         -3.0320   -3.6500   -0.0400 H         1 FLR1        0.0000
     15 C9         -0.9370   -4.1350    0.0180 C.ar      1 FLR1        0.0000
     16 H9         -1.1080   -5.2020    0.0290 H         1 FLR1        0.0000
     17 C10         0.3750   -3.6340    0.0430 C.ar      1 FLR1        0.0000
     18 H10         1.2160   -4.3090    0.0730 H         1 FLR1        0.0000
     19 C11         0.6020   -2.2650    0.0270 C.ar      1 FLR1        0.0000
     20 C12         1.9130   -1.4740    0.0410 C.3       1 FLR1        0.0000
     21 H21         2.5440   -1.7060   -0.8270 H         1 FLR1        0.0000
     22 H22         2.5250   -1.6910    0.9280 H         1 FLR1        0.0000
     23 C13         1.4110   -0.0270    0.0190 C.ar      1 FLR1        0.0000
@<TRIPOS>BOND
     1   21   20 1 
     2    8    7 1 
     3   12   11 1 
     4    6    5 1 
     5    7    5 ar
     6    7    9 ar
     7   14   13 1 
     8    5    3 ar
     9   11   13 ar
    10   11   10 ar
    11   13   15 ar
    12    9   10 1 
    13    9   23 ar
    14   10   19 ar
    15    3    4 1 
    16    3    1 ar
    17   15   16 1 
    18   15   17 ar
    19   23    1 ar
    20   23   20 1 
    21    1    2 1 
    22   19   20 1 
    23   19   17 ar
    24   20   22 1 
    25   17   18 1 
