@<TRIPOS>MOLECULE
C:\Users\Praveer\PycharmProjects\pdb_to_mol2_converter\data\pdb\flub.pdb
   12    12     0     0     0
SMALL
GASTEIGER

@<TRIPOS>ATOM
      1 C1          1.3870   -0.0230    0.0000 C.ar      1 FLU1        0.0000
      2 H1          1.9340   -0.9530    0.0000 H         1 FLU1        0.0000
      3 C2          2.0670    1.2030   -0.0000 C.ar      1 FLU1        0.0000
      4 H2          3.1470    1.2240   -0.0000 H         1 FLU1        0.0000
      5 C3          1.3390    2.4020   -0.0000 C.ar      1 FLU1        0.0000
      6 H3          1.8640    3.3470   -0.0000 H         1 FLU1        0.0000
      7 C4         -0.0620    2.3850    0.0000 C.ar      1 FLU1        0.0000
      8 H4         -0.6160    3.3120    0.0000 H         1 FLU1        0.0000
      9 C5         -0.7430    1.1590   -0.0000 C.ar      1 FLU1        0.0000
     10 H5         -1.8220    1.1310   -0.0000 H         1 FLU1        0.0000
     11 C6         -0.0050   -0.0220   -0.0000 C.ar      1 FLU1        0.0000
     12 F6         -0.6640   -1.2090   -0.0000 F         1 FLU1        0.0000
@<TRIPOS>BOND
     1    1    2 1 
     2    1    3 ar
     3    1   11 ar
     4    3    4 1 
     5    3    5 ar
     6    5    6 1 
     7    5    7 ar
     8    7    8 1 
     9    7    9 ar
    10    9   10 1 
    11    9   11 ar
    12   11   12 1 
