@<TRIPOS>MOLECULE
C:\Users\Praveer\PycharmProjects\pdb_to_mol2_converter\data\pdb\fora.pdb
    4     3     0     0     0
SMALL
GASTEIGER

@<TRIPOS>ATOM
      1 C1          1.2600    0.0000    0.0000 C.2       1 FOR1        0.0000
      2 O2          0.0000    0.0000    0.0000 O.co2     1 FOR1        0.0000
      3 O3          2.0360    0.9930    0.0000 O.co2     1 FOR1        0.0000
      4 H4          1.7610   -1.0270    0.0000 H         1 FOR1        0.0000
@<TRIPOS>BOND
     1    1    2 ar
     2    1    3 ar
     3    1    4 1 
