@<TRIPOS>MOLECULE
C:\Users\Praveer\PycharmProjects\pdb_to_mol2_converter\data\pdb\forh.pdb
    5     4     0     0     0
SMALL
GASTEIGER

@<TRIPOS>ATOM
      1 C           1.2290    0.0150    0.0000 C.2       1 FOR1        0.0000
      2 H           1.8580   -0.8860   -0.0000 H         1 FOR1        0.0000
      3 O2          0.0150    0.0420   -0.0000 O.2       1 FOR1        0.0000
      4 O1          1.9900    1.1610   -0.0000 O.3       1 FOR1        0.0000
      5 HO1         1.4350    1.9430    0.0000 H         1 FOR1        0.0000
@<TRIPOS>BOND
     1    1    2 1 
     2    1    3 2 
     3    1    4 1 
     4    4    5 1 
