@<TRIPOS>MOLECULE
C:\Users\Praveer\PycharmProjects\pdb_to_mol2_converter\data\pdb\form.pdb
    6     5     0     0     0
SMALL
GASTEIGER

@<TRIPOS>ATOM
      1 HA          1.8500   -0.8980    0.0000 H         1 FOR1        0.0000
      2 C           1.2340    0.0080    0.0000 C.2       1 FOR1        0.0000
      3 N           1.9730    1.1400    0.0000 N.am      1 FOR1        0.0000
      4 HC          2.9670    1.1010    0.0000 H         1 FOR1        0.0000
      5 HT          1.4680    2.0000   -0.0000 H         1 FOR1        0.0000
      6 O           0.0060    0.0250   -0.0000 O.2       1 FOR1        0.0000
@<TRIPOS>BOND
     1    1    2 1 
     2    2    3 am
     3    2    6 2 
     4    3    4 1 
     5    3    5 1 
