@<TRIPOS>MOLECULE
C:\Users\Praveer\PycharmProjects\pdb_to_mol2_converter\data\pdb\fret.pdb
   62    63     0     0     0
SMALL
GASTEIGER

@<TRIPOS>ATOM
      1 C1         -0.0670    0.0520    0.0080 C.3       1 FRE1        0.0000
      2 C2          1.4740   -0.1640   -0.1360 C.3       1 FRE1        0.0000
      3 H21         1.6740   -0.6200   -1.1320 H         1 FRE1        0.0000
      4 H22         1.7890   -0.9340    0.6050 H         1 FRE1        0.0000
      5 C3          2.4140    1.0390    0.0280 C.3       1 FRE1        0.0000
      6 H31         3.1530    1.0120   -0.8090 H         1 FRE1        0.0000
      7 H32         2.9970    0.9150    0.9690 H         1 FRE1        0.0000
      8 C4          1.7650    2.4310    0.0390 C.3       1 FRE1        0.0000
      9 H41         2.0530    2.9470   -0.9040 H         1 FRE1        0.0000
     10 H42         2.2300    2.9990    0.8770 H         1 FRE1        0.0000
     11 C5          0.2820    2.5590    0.1910 C.2       1 FRE1        0.0000
     12 C6         -0.5690    1.5000    0.1080 C.2       1 FRE1        0.0000
     13 C7         -2.0480    1.7140    0.2490 C.2       1 FRE1        0.0000
     14 H71        -2.5340    1.1530    1.0600 H         1 FRE1        0.0000
     15 C8         -2.8290    2.5100   -0.5220 C.2       1 FRE1        0.0000
     16 H81        -2.3210    3.1360   -1.2760 H         1 FRE1        0.0000
     17 C9         -4.2830    2.7720   -0.3310 C.2       1 FRE1        0.0000
     18 C10        -4.7850    4.0280   -0.3200 C.2       1 FRE1        0.0000
     19 H101       -4.0680    4.8500   -0.4620 H         1 FRE1        0.0000
     20 C11        -6.2130    4.4120   -0.1800 C.2       1 FRE1        0.0000
     21 H111       -6.9520    3.6140   -0.3470 H         1 FRE1        0.0000
     22 C12        -6.6690    5.6730    0.0150 C.2       1 FRE1        0.0000
     23 H121       -5.9190    6.4790    0.0410 H         1 FRE1        0.0000
     24 C13        -8.1030    6.0910    0.0370 C.2       1 FRE1        0.0000
     25 C14        -8.5050    7.3630   -0.2050 C.2       1 FRE1        0.0000
     26 H141       -7.7370    8.1150   -0.4190 H         1 FRE1        0.0000
     27 C16        -0.5430   -0.7360    1.2550 C.3       1 FRE1        0.0000
     28 H161       -0.2010   -0.2460    2.1900 H         1 FRE1        0.0000
     29 H162       -0.1380   -1.7700    1.2370 H         1 FRE1        0.0000
     30 H163       -1.6480   -0.8210    1.2820 H         1 FRE1        0.0000
     31 C17        -0.7200   -0.5990   -1.2360 C.3       1 FRE1        0.0000
     32 H171       -0.3910   -1.6550   -1.3300 H         1 FRE1        0.0000
     33 H172       -0.4160   -0.0610   -2.1590 H         1 FRE1        0.0000
     34 H173       -1.8270   -0.5980   -1.1690 H         1 FRE1        0.0000
     35 C18        -0.1630    3.9920    0.4040 C.3       1 FRE1        0.0000
     36 H181       -0.2390    4.5340   -0.5620 H         1 FRE1        0.0000
     37 H182        0.5610    4.5530    1.0340 H         1 FRE1        0.0000
     38 H183       -1.1490    4.0720    0.9090 H         1 FRE1        0.0000
     39 C19        -5.0990    1.5100   -0.1370 C.3       1 FRE1        0.0000
     40 H191       -4.7440    0.9300    0.7390 H         1 FRE1        0.0000
     41 H192       -5.0310    0.8520   -1.0290 H         1 FRE1        0.0000
     42 H193       -6.1810    1.6990    0.0330 H         1 FRE1        0.0000
     43 C20        -9.0700    4.9550    0.3050 C.3       1 FRE1        0.0000
     44 H201       -8.8170    4.4230    1.2480 H         1 FRE1        0.0000
     45 H202       -9.0510    4.2080   -0.5160 H         1 FRE1        0.0000
     46 H203      -10.1290    5.2830    0.4030 H         1 FRE1        0.0000
     47 C15        -9.9180    7.7650   -0.4350 C.2       1 FRE1        0.0000
     48 O29       -10.6300    7.1650   -1.2370 O.2       1 FRE1        0.0000
     49 N21       -10.3390    8.8940    0.1660 N.am      1 FRE1        0.0000
     50 H211       -9.7150    9.4010    0.7440 H         1 FRE1        0.0000
     51 C22       -11.6740    9.3830    0.1420 C.ar      1 FRE1        0.0000
     52 C23       -12.7940    8.5340    0.1740 C.ar      1 FRE1        0.0000
     53 H231      -12.6570    7.4650    0.2410 H         1 FRE1        0.0000
     54 C24       -14.0910    9.0590    0.1120 C.ar      1 FRE1        0.0000
     55 H241      -14.9340    8.3850    0.1310 H         1 FRE1        0.0000
     56 C26       -13.1690   11.2980   -0.0170 C.ar      1 FRE1        0.0000
     57 H261      -13.3240   12.3630   -0.1010 H         1 FRE1        0.0000
     58 C27       -11.8700   10.7680    0.0470 C.ar      1 FRE1        0.0000
     59 H271      -11.0180   11.4300    0.0080 H         1 FRE1        0.0000
     60 C25       -14.2760   10.4430    0.0180 C.ar      1 FRE1        0.0000
     61 O28       -15.5760   10.9790   -0.0450 O.3       1 FRE1        0.0000
     62 H281      -16.1920   10.2450   -0.0260 H         1 FRE1        0.0000
@<TRIPOS>BOND
     1   33   31 1 
     2   32   31 1 
     3   16   15 1 
     4   48   47 2 
     5   31   34 1 
     6   31    1 1 
     7    3    2 1 
     8   41   39 1 
     9    9    8 1 
    10    6    5 1 
    11   36   35 1 
    12   15   17 1 
    13   15   13 2 
    14   45   43 1 
    15   19   18 1 
    16   47   25 1 
    17   47   49 am
    18   26   25 1 
    19   21   20 1 
    20   17   18 2 
    21   17   39 1 
    22   18   20 1 
    23   25   24 2 
    24   20   22 2 
    25   39   42 1 
    26   39   40 1 
    27    2    1 1 
    28    2    5 1 
    29    2    4 1 
    30   57   56 1 
    31   61   62 1 
    32   61   60 1 
    33   56   60 ar
    34   56   58 ar
    35   59   58 1 
    36    1   12 1 
    37    1   27 1 
    38   22   24 1 
    39   22   23 1 
    40   60   54 ar
    41    5    8 1 
    42    5    7 1 
    43   24   43 1 
    44    8   11 1 
    45    8   10 1 
    46   58   51 ar
    47   12   11 2 
    48   12   13 1 
    49   54   55 1 
    50   54   52 ar
    51   51   49 1 
    52   51   52 ar
    53   49   50 1 
    54   52   53 1 
    55   11   35 1 
    56   13   14 1 
    57   43   46 1 
    58   43   44 1 
    59   35   38 1 
    60   35   37 1 
    61   29   27 1 
    62   27   30 1 
    63   27   28 1 
