@<TRIPOS>MOLECULE
C:\Users\Praveer\PycharmProjects\pdb_to_mol2_converter\data\pdb\ftaz.pdb
   16    17     0     0     0
SMALL
GASTEIGER

@<TRIPOS>ATOM
      1 C1          2.0630    1.2410    0.0000 C.ar      1 FTA1        0.0000
      2 H1          3.1410    1.3060    0.0000 H         1 FTA1        0.0000
      3 N2          1.3630    2.3780    0.0000 N.ar      1 FTA1        0.0000
      4 N3          0.0120    2.3780   -0.0000 N.ar      1 FTA1        0.0000
      5 C4         -0.6880    1.2410   -0.0000 C.ar      1 FTA1        0.0000
      6 H4         -1.7660    1.3060   -0.0000 H         1 FTA1        0.0000
      7 C5         -0.0270   -0.0040   -0.0000 C.ar      1 FTA1        0.0000
      8 C6         -0.7220   -1.2200   -0.0000 C.ar      1 FTA1        0.0000
      9 H6         -1.8040   -1.2390   -0.0000 H         1 FTA1        0.0000
     10 C7         -0.0130   -2.4290   -0.0000 C.ar      1 FTA1        0.0000
     11 H7         -0.5500   -3.3680   -0.0000 H         1 FTA1        0.0000
     12 C8          1.3880   -2.4290   -0.0000 C.ar      1 FTA1        0.0000
     13 H8          1.9250   -3.3680   -0.0000 H         1 FTA1        0.0000
     14 C9          2.0970   -1.2200    0.0000 C.ar      1 FTA1        0.0000
     15 H9          3.1790   -1.2390    0.0000 H         1 FTA1        0.0000
     16 C10         1.4020   -0.0040    0.0000 C.ar      1 FTA1        0.0000
@<TRIPOS>BOND
     1    1    2 1 
     2    1    3 ar
     3    1   16 ar
     4    3    4 ar
     5    4    5 ar
     6    5    6 1 
     7    5    7 ar
     8    7    8 ar
     9    7   16 ar
    10    8    9 1 
    11    8   10 ar
    12   10   11 1 
    13   10   12 ar
    14   12   13 1 
    15   12   14 ar
    16   14   15 1 
    17   14   16 ar
