@<TRIPOS>MOLECULE
C:\Users\Praveer\PycharmProjects\pdb_to_mol2_converter\data\pdb\fura.pdb
    9     9     0     0     0
SMALL
GASTEIGER

@<TRIPOS>ATOM
      1 C1          1.3740    0.0010    0.0000 C.ar      1 FUR1        0.0000
      2 H1          1.8740   -0.9600    0.0000 H         1 FUR1        0.0000
      3 C2          1.8770    1.2640   -0.0000 C.ar      1 FUR1        0.0000
      4 H2          2.9230    1.5350   -0.0000 H         1 FUR1        0.0000
      5 C3          0.8150    2.1180   -0.0000 C.ar      1 FUR1        0.0000
      6 H3          0.8560    3.1970   -0.0000 H         1 FUR1        0.0000
      7 C4         -0.3110    1.3560   -0.0000 C.ar      1 FUR1        0.0000
      8 H4         -1.3570    1.6380   -0.0000 H         1 FUR1        0.0000
      9 O5          0.0060    0.0250    0.0000 O.2       1 FUR1        0.0000
@<TRIPOS>BOND
     1    1    2 1 
     2    1    3 ar
     3    1    9 ar
     4    3    4 1 
     5    3    5 ar
     6    5    6 1 
     7    5    7 ar
     8    7    8 1 
     9    7    9 ar
