@<TRIPOS>MOLECULE
C:\Users\Praveer\PycharmProjects\pdb_to_mol2_converter\data\pdb\ga.pdb
   82    85     0     0     0
SMALL
GASTEIGER

@<TRIPOS>ATOM
      1 C3          2.1160    1.4230   -0.0070 C.3       1 GA1         0.0000
      2 O3          3.5030    1.3160   -0.2780 O.3       1 GA1         0.0000
      3 H3'         3.5530    1.0310   -1.1930 H         1 GA1         0.0000
      4 H3          1.9580    1.8880    0.9930 H         1 GA1         0.0000
      5 C4          1.4570    2.3020   -1.0870 C.3       1 GA1         0.0000
      6 H4A         1.8910    2.0450   -2.0770 H         1 GA1         0.0000
      7 H4B         1.7170    3.3640   -0.8880 H         1 GA1         0.0000
      8 C5         -0.0930    2.1760   -1.1950 C.3       1 GA1         0.0000
      9 H5         -0.4870    2.6520   -0.2630 H         1 GA1         0.0000
     10 C6         -0.6070    3.0280   -2.3850 C.3       1 GA1         0.0000
     11 H6A        -0.0520    3.9910   -2.4170 H         1 GA1         0.0000
     12 H6B        -1.6730    3.2810   -2.2000 H         1 GA1         0.0000
     13 C7         -0.5270    2.3270   -3.7600 C.3       1 GA1         0.0000
     14 O7          0.7580    2.5680   -4.3220 O.3       1 GA1         0.0000
     15 H7'         0.7150    2.1600   -5.1910 H         1 GA1         0.0000
     16 H7         -1.2510    2.8460   -4.4340 H         1 GA1         0.0000
     17 C8         -0.9160    0.8490   -3.7020 C.3       1 GA1         0.0000
     18 H8         -2.0190    0.7930   -3.6190 H         1 GA1         0.0000
     19 C14        -0.4760    0.1690   -5.0280 C.3       1 GA1         0.0000
     20 H14         0.6370    0.1350   -5.0530 H         1 GA1         0.0000
     21 C15        -0.9810    0.7740   -6.3450 C.3       1 GA1         0.0000
     22 H15A       -0.3220    1.5660   -6.7200 H         1 GA1         0.0000
     23 H15B       -1.9830    1.2150   -6.2250 H         1 GA1         0.0000
     24 C16        -1.0460   -0.4380   -7.3110 C.3       1 GA1         0.0000
     25 H16A       -0.5140   -0.2490   -8.2520 H         1 GA1         0.0000
     26 H16B       -2.0960   -0.6030   -7.5940 H         1 GA1         0.0000
     27 C17        -0.4280   -1.6270   -6.5280 C.3       1 GA1         0.0000
     28 H17         0.6660   -1.5030   -6.5100 H         1 GA1         0.0000
     29 C13        -0.9790   -1.2810   -5.1130 C.3       1 GA1         0.0000
     30 C18        -2.5260   -1.4230   -5.0530 C.3       1 GA1         0.0000
     31 H18A       -3.0320   -0.4390   -5.0110 H         1 GA1         0.0000
     32 H18B       -2.8450   -2.0180   -4.1760 H         1 GA1         0.0000
     33 H18C       -2.9210   -1.9350   -5.9520 H         1 GA1         0.0000
     34 C12        -0.3370   -2.1000   -3.9940 C.3       1 GA1         0.0000
     35 H12A        0.7640   -2.1250   -4.1480 H         1 GA1         0.0000
     36 H12B       -0.7130   -3.1440   -4.0120 H         1 GA1         0.0000
     37 C11        -0.6310   -1.4470   -2.6270 C.3       1 GA1         0.0000
     38 H11A       -0.0590   -2.0080   -1.8580 H         1 GA1         0.0000
     39 H11B       -1.7080   -1.5720   -2.3960 H         1 GA1         0.0000
     40 C9         -0.2630    0.0660   -2.5530 C.3       1 GA1         0.0000
     41 H9          0.8380    0.1330   -2.7030 H         1 GA1         0.0000
     42 C10        -0.6130    0.7410   -1.2080 C.3       1 GA1         0.0000
     43 C19        -2.1410    0.7540   -0.9350 C.3       1 GA1         0.0000
     44 H19A       -2.6980    1.3180   -1.7070 H         1 GA1         0.0000
     45 H19B       -2.3470    1.2350    0.0440 H         1 GA1         0.0000
     46 H19C       -2.5430   -0.2780   -0.8960 H         1 GA1         0.0000
     47 C1          0.0120   -0.0050    0.0050 C.3       1 GA1         0.0000
     48 H1A        -0.3720   -1.0440    0.0540 H         1 GA1         0.0000
     49 H1B        -0.3290    0.5070    0.9330 H         1 GA1         0.0000
     50 C2          1.5450   -0.0030    0.0030 C.3       1 GA1         0.0000
     51 H2A         1.9120   -0.5270    0.9140 H         1 GA1         0.0000
     52 H2B         1.9150   -0.5740   -0.8760 H         1 GA1         0.0000
     53 C20        -0.7410   -3.0830   -6.9950 C.3       1 GA1         0.0000
     54 H20        -1.2540   -3.6300   -6.1730 H         1 GA1         0.0000
     55 C21         0.6060   -3.7870   -7.2670 C.3       1 GA1         0.0000
     56 H21A        1.2510   -3.7490   -6.3650 H         1 GA1         0.0000
     57 H21B        1.1330   -3.2880   -8.1080 H         1 GA1         0.0000
     58 H21C        0.4420   -4.8520   -7.5350 H         1 GA1         0.0000
     59 C22        -1.6730   -3.1240   -8.2290 C.3       1 GA1         0.0000
     60 H22A       -1.1990   -2.5480   -9.0550 H         1 GA1         0.0000
     61 H22B       -2.6230   -2.6050   -7.9570 H         1 GA1         0.0000
     62 C23        -2.0390   -4.5460   -8.7220 C.3       1 GA1         0.0000
     63 H23A       -2.3440   -5.1710   -7.8550 H         1 GA1         0.0000
     64 H23B       -1.1820   -5.0280   -9.2330 H         1 GA1         0.0000
     65 C24        -3.2040   -4.4750   -9.6600 C.2       1 GA1         0.0000
     66 O24        -4.1970   -5.1720   -9.4740 O.2       1 GA1         0.0000
     67 N          -3.0800   -3.6030  -10.6670 N.am      1 GA1         0.0000
     68 HN         -2.2290   -3.1300  -10.9240 H         1 GA1         0.0000
     69 CC1        -4.1060   -3.0320  -11.5050 C.3       1 GA1         0.0000
     70 HC1        -4.7960   -3.8280  -11.8530 H         1 GA1         0.0000
     71 CA         -3.3390   -2.4730  -12.7320 C.2       1 GA1         0.0000
     72 OA1        -3.9960   -2.2270  -13.7720 O.co2     1 GA1         0.0000
     73 OA2        -2.0870   -2.3590  -12.5480 O.co2     1 GA1         0.0000
     74 CC2        -4.8840   -1.9250  -10.7330 C.3       1 GA1         0.0000
     75 HC2A       -5.3490   -2.4050   -9.8420 H         1 GA1         0.0000
     76 HC2B       -5.7030   -1.5330  -11.3730 H         1 GA1         0.0000
     77 CC3        -4.0070   -0.7320  -10.2540 C.3       1 GA1         0.0000
     78 HC3A       -3.7730   -0.0850  -11.1230 H         1 GA1         0.0000
     79 HC3B       -3.0510   -1.0970   -9.8350 H         1 GA1         0.0000
     80 CG         -4.6600    0.1190   -9.1640 C.2       1 GA1         0.0000
     81 OG1        -5.0020    1.2860   -9.4890 O.co2     1 GA1         0.0000
     82 OG2        -4.7630   -0.4220   -8.0300 O.co2     1 GA1         0.0000
@<TRIPOS>BOND
     1   72   71 ar
     2   71   73 ar
     3   71   69 1 
     4   70   69 1 
     5   69   74 1 
     6   69   67 1 
     7   76   74 1 
     8   78   77 1 
     9   68   67 1 
    10   74   77 1 
    11   74   75 1 
    12   67   65 am
    13   77   79 1 
    14   77   80 1 
    15   65   66 2 
    16   65   62 1 
    17   81   80 ar
    18   64   62 1 
    19   80   82 ar
    20   60   59 1 
    21   62   59 1 
    22   62   63 1 
    23   25   24 1 
    24   59   61 1 
    25   59   53 1 
    26   57   55 1 
    27   26   24 1 
    28   58   55 1 
    29   24   27 1 
    30   24   21 1 
    31   55   53 1 
    32   55   56 1 
    33   53   27 1 
    34   53   54 1 
    35   22   21 1 
    36   27   28 1 
    37   27   29 1 
    38   21   23 1 
    39   21   19 1 
    40   33   30 1 
    41   15   14 1 
    42   29   30 1 
    43   29   19 1 
    44   29   34 1 
    45   20   19 1 
    46   30   31 1 
    47   30   32 1 
    48   19   17 1 
    49   16   13 1 
    50   14   13 1 
    51   35   34 1 
    52   36   34 1 
    53   34   37 1 
    54   13   17 1 
    55   13   10 1 
    56   17   18 1 
    57   17   40 1 
    58   41   40 1 
    59   37   40 1 
    60   37   39 1 
    61   37   38 1 
    62   40   42 1 
    63   11   10 1 
    64   10   12 1 
    65   10    8 1 
    66    6    5 1 
    67   44   43 1 
    68   42    8 1 
    69   42   43 1 
    70   42   47 1 
    71    8    5 1 
    72    8    9 1 
    73    3    2 1 
    74    5    7 1 
    75    5    1 1 
    76   43   46 1 
    77   43   45 1 
    78   52   50 1 
    79    2    1 1 
    80    1   50 1 
    81    1    4 1 
    82   50   47 1 
    83   50   51 1 
    84   47   48 1 
    85   47   49 1 
