@<TRIPOS>MOLECULE
C:\Users\Praveer\PycharmProjects\pdb_to_mol2_converter\data\pdb\gabd.pdb
   94    98     0     0     0
SMALL
GASTEIGER

@<TRIPOS>ATOM
      1 C3          2.1150    1.4250   -0.0160 C.3       1 GAB1        0.0000
      2 O3          3.5030    1.3180   -0.2790 O.3       1 GAB1        0.0000
      3 HO3         3.5570    1.0100   -1.1870 H         1 GAB1        0.0000
      4 H3          1.9510    1.9020    0.9780 H         1 GAB1        0.0000
      5 C4          1.4600    2.2880   -1.1090 C.3       1 GAB1        0.0000
      6 H4A         1.8930    2.0110   -2.0930 H         1 GAB1        0.0000
      7 H4B         1.7260    3.3520   -0.9310 H         1 GAB1        0.0000
      8 C5         -0.0900    2.1670   -1.2110 C.3       1 GAB1        0.0000
      9 H5         -0.4800    2.6560   -0.2850 H         1 GAB1        0.0000
     10 C6         -0.5980    3.0090   -2.4110 C.3       1 GAB1        0.0000
     11 H6A        -0.0320    3.9650   -2.4540 H         1 GAB1        0.0000
     12 H6B        -1.6610    3.2750   -2.2270 H         1 GAB1        0.0000
     13 C7         -0.5220    2.2900   -3.7770 C.3       1 GAB1        0.0000
     14 O7          0.7700    2.5070   -4.3330 O.3       1 GAB1        0.0000
     15 HO7         0.7600    2.0440   -5.1750 H         1 GAB1        0.0000
     16 H7         -1.2340    2.8150   -4.4580 H         1 GAB1        0.0000
     17 C8         -0.9330    0.8180   -3.7000 C.3       1 GAB1        0.0000
     18 H8         -2.0350    0.7800   -3.6030 H         1 GAB1        0.0000
     19 C14        -0.5200    0.1170   -5.0250 C.3       1 GAB1        0.0000
     20 H14         0.5930    0.0800   -5.0730 H         1 GAB1        0.0000
     21 C15        -1.0510    0.7410   -6.3150 C.3       1 GAB1        0.0000
     22 H15A       -0.4230    1.5730   -6.6620 H         1 GAB1        0.0000
     23 H15B       -2.0670    1.1400   -6.1720 H         1 GAB1        0.0000
     24 C16        -1.0580   -0.4380   -7.3110 C.3       1 GAB1        0.0000
     25 H16A       -0.4640   -0.2010   -8.2060 H         1 GAB1        0.0000
     26 H16B       -2.0780   -0.6350   -7.6720 H         1 GAB1        0.0000
     27 C17        -0.4770   -1.6680   -6.5610 C.3       1 GAB1        0.0000
     28 H17         0.6220   -1.6140   -6.5300 H         1 GAB1        0.0000
     29 C13        -1.0210   -1.3390   -5.1230 C.3       1 GAB1        0.0000
     30 C18        -2.5650   -1.4890   -5.0500 C.3       1 GAB1        0.0000
     31 H18A       -3.0660   -0.5200   -4.8620 H         1 GAB1        0.0000
     32 H18B       -2.8510   -2.1890   -4.2400 H         1 GAB1        0.0000
     33 H18C       -2.9790   -1.8950   -5.9920 H         1 GAB1        0.0000
     34 C12        -0.3710   -2.1250   -3.9750 C.3       1 GAB1        0.0000
     35 H12A        0.7300   -2.1480   -4.1290 H         1 GAB1        0.0000
     36 H12B       -0.7370   -3.1670   -3.9290 H         1 GAB1        0.0000
     37 C11        -0.6710   -1.4570   -2.6160 C.3       1 GAB1        0.0000
     38 H11A       -0.1140   -2.0220   -1.8390 H         1 GAB1        0.0000
     39 H11B       -1.7530   -1.5670   -2.3960 H         1 GAB1        0.0000
     40 C9         -0.2800    0.0460   -2.5490 C.3       1 GAB1        0.0000
     41 H9          0.8220    0.0970   -2.7040 H         1 GAB1        0.0000
     42 C10        -0.6170    0.7340   -1.2080 C.3       1 GAB1        0.0000
     43 C19        -2.1430    0.7560   -0.9230 C.3       1 GAB1        0.0000
     44 H19A       -2.7040    1.3110   -1.6970 H         1 GAB1        0.0000
     45 H19B       -2.3380    1.2510    0.0510 H         1 GAB1        0.0000
     46 H19C       -2.5460   -0.2750   -0.8630 H         1 GAB1        0.0000
     47 C1          0.0130   -0.0040    0.0080 C.3       1 GAB1        0.0000
     48 H1A        -0.3680   -1.0440    0.0650 H         1 GAB1        0.0000
     49 H1B        -0.3270    0.5130    0.9340 H         1 GAB1        0.0000
     50 C2          1.5460   -0.0010    0.0040 C.3       1 GAB1        0.0000
     51 H2A         1.9150   -0.5190    0.9180 H         1 GAB1        0.0000
     52 H2B         1.9150   -0.5750   -0.8720 H         1 GAB1        0.0000
     53 C20        -0.8770   -3.0090   -7.2600 C.3       1 GAB1        0.0000
     54 H20        -1.9590   -2.9830   -7.5140 H         1 GAB1        0.0000
     55 C21        -0.6110   -4.2400   -6.3740 C.3       1 GAB1        0.0000
     56 H21A       -1.3330   -4.2720   -5.5340 H         1 GAB1        0.0000
     57 H21B        0.4250   -4.2160   -5.9760 H         1 GAB1        0.0000
     58 H21C       -0.7460   -5.1800   -6.9460 H         1 GAB1        0.0000
     59 C22        -0.0860   -3.1190   -8.5910 C.3       1 GAB1        0.0000
     60 H22A        0.9940   -3.2290   -8.3430 H         1 GAB1        0.0000
     61 H22B       -0.2140   -2.1620   -9.1460 H         1 GAB1        0.0000
     62 C23        -0.5500   -4.2770   -9.5140 C.3       1 GAB1        0.0000
     63 H23A       -1.6510   -4.2130   -9.6590 H         1 GAB1        0.0000
     64 H23B       -0.3160   -5.2620   -9.0600 H         1 GAB1        0.0000
     65 C24         0.0830   -4.2410  -10.8760 C.2       1 GAB1        0.0000
     66 O24        -0.3780   -4.9170  -11.7890 O.2       1 GAB1        0.0000
     67 N           1.1450   -3.4400  -11.0160 N.am      1 GAB1        0.0000
     68 HN          1.5800   -2.9420  -10.2480 H         1 GAB1        0.0000
     69 CC1         1.9790   -3.1900  -12.1670 C.3       1 GAB1        0.0000
     70 HC1         2.4020   -4.1480  -12.5360 H         1 GAB1        0.0000
     71 CA          3.1370   -2.3350  -11.5990 C.2       1 GAB1        0.0000
     72 OA1         4.0180   -1.9520  -12.4020 O.co2     1 GAB1        0.0000
     73 OA2         3.0420   -2.0880  -10.3590 O.co2     1 GAB1        0.0000
     74 CC2         1.2360   -2.4510  -13.3120 C.3       1 GAB1        0.0000
     75 HC2A        0.3750   -3.0920  -13.6110 H         1 GAB1        0.0000
     76 HC2B        1.9040   -2.3960  -14.1990 H         1 GAB1        0.0000
     77 CC3         0.6820   -1.0570  -12.9140 C.3       1 GAB1        0.0000
     78 HC3A        0.7840   -0.8920  -11.8210 H         1 GAB1        0.0000
     79 HC3B       -0.4030   -1.0230  -13.1550 H         1 GAB1        0.0000
     80 CG          1.3310    0.0950  -13.6260 C.2       1 GAB1        0.0000
     81 OG          0.6220    0.9330  -14.1760 O.2       1 GAB1        0.0000
     82 NG          2.6760    0.1440  -13.6020 N.am      1 GAB1        0.0000
     83 HG          3.1560   -0.6120  -13.1250 H         1 GAB1        0.0000
     84 CZ          3.5670    1.1010  -14.1560 C.ar      1 GAB1        0.0000
     85 CD1         3.2060    2.1550  -15.0080 C.ar      1 GAB1        0.0000
     86 HD1         2.1790    2.2970  -15.3010 H         1 GAB1        0.0000
     87 CE1         4.1770    3.0410  -15.5000 C.ar      1 GAB1        0.0000
     88 HE1         3.8860    3.8490  -16.1540 H         1 GAB1        0.0000
     89 CP          5.5210    2.8740  -15.1430 C.ar      1 GAB1        0.0000
     90 HP          6.2700    3.5540  -15.5200 H         1 GAB1        0.0000
     91 CE2         5.8940    1.8200  -14.2990 C.ar      1 GAB1        0.0000
     92 HE2         6.9280    1.6820  -14.0220 H         1 GAB1        0.0000
     93 CD2         4.9190    0.9400  -13.8120 C.ar      1 GAB1        0.0000
     94 HD2         5.2030    0.1250  -13.1600 H         1 GAB1        0.0000
@<TRIPOS>BOND
     1   88   87 1 
     2   90   89 1 
     3   87   89 ar
     4   87   85 ar
     5   86   85 1 
     6   89   91 ar
     7   85   84 ar
     8   91   92 1 
     9   91   93 ar
    10   76   74 1 
    11   81   80 2 
    12   84   93 ar
    13   84   82 1 
    14   93   94 1 
    15   80   82 am
    16   80   77 1 
    17   75   74 1 
    18   82   83 1 
    19   74   77 1 
    20   74   69 1 
    21   79   77 1 
    22   77   78 1 
    23   70   69 1 
    24   72   71 ar
    25   69   71 1 
    26   69   67 1 
    27   66   65 2 
    28   71   73 ar
    29   67   65 am
    30   67   68 1 
    31   65   62 1 
    32   63   62 1 
    33   62   64 1 
    34   62   59 1 
    35   61   59 1 
    36   59   60 1 
    37   59   53 1 
    38   25   24 1 
    39   26   24 1 
    40   54   53 1 
    41   24   27 1 
    42   24   21 1 
    43   53   27 1 
    44   53   55 1 
    45   58   55 1 
    46   22   21 1 
    47   27   28 1 
    48   27   29 1 
    49   55   57 1 
    50   55   56 1 
    51   21   23 1 
    52   21   19 1 
    53   33   30 1 
    54   15   14 1 
    55   29   30 1 
    56   29   19 1 
    57   29   34 1 
    58   20   19 1 
    59   30   31 1 
    60   30   32 1 
    61   19   17 1 
    62   16   13 1 
    63   14   13 1 
    64   35   34 1 
    65   34   36 1 
    66   34   37 1 
    67   13   17 1 
    68   13   10 1 
    69   17   18 1 
    70   17   40 1 
    71   41   40 1 
    72   37   40 1 
    73   37   39 1 
    74   37   38 1 
    75   40   42 1 
    76   11   10 1 
    77   10   12 1 
    78   10    8 1 
    79    6    5 1 
    80   44   43 1 
    81    8   42 1 
    82    8    5 1 
    83    8    9 1 
    84   42   43 1 
    85   42   47 1 
    86    3    2 1 
    87    5    7 1 
    88    5    1 1 
    89   43   46 1 
    90   43   45 1 
    91   52   50 1 
    92    2    1 1 
    93    1   50 1 
    94    1    4 1 
    95   50   47 1 
    96   50   51 1 
    97   47   48 1 
    98   47   49 1 
