@<TRIPOS>MOLECULE
C:\Users\Praveer\PycharmProjects\pdb_to_mol2_converter\data\pdb\gbl.pdb
   12    12     0     0     0
SMALL
GASTEIGER

@<TRIPOS>ATOM
      1 O1         -0.0080   -0.0050   -0.0000 O.3       1 GBL1        0.0000
      2 C2          1.3670    0.0340    0.0000 C.2       1 GBL1        0.0000
      3 O2          2.1210   -0.9400   -0.0000 O.2       1 GBL1        0.0000
      4 C3          1.8290    1.4950   -0.0000 C.3       1 GBL1        0.0000
      5 H31         2.4550    1.6920   -0.8820 H         1 GBL1        0.0000
      6 H32         2.4550    1.6920    0.8820 H         1 GBL1        0.0000
      7 C4          0.5560    2.3310    0.0000 C.3       1 GBL1        0.0000
      8 H41         0.5040    2.9870   -0.8830 H         1 GBL1        0.0000
      9 H42         0.5040    2.9870    0.8830 H         1 GBL1        0.0000
     10 C5         -0.5670    1.3100   -0.0000 C.3       1 GBL1        0.0000
     11 H51        -1.2150    1.3930    0.8860 H         1 GBL1        0.0000
     12 H52        -1.2150    1.3930   -0.8860 H         1 GBL1        0.0000
@<TRIPOS>BOND
     1   12   10 1 
     2    8    7 1 
     3    5    4 1 
     4    1    2 1 
     5    1   10 1 
     6    2    3 2 
     7    2    4 1 
     8    4    7 1 
     9    4    6 1 
    10    7   10 1 
    11    7    9 1 
    12   10   11 1 
