@<TRIPOS>MOLECULE
C:\Users\Praveer\PycharmProjects\pdb_to_mol2_converter\data\pdb\gla.pdb
   49    48     0     0     0
SMALL
GASTEIGER

@<TRIPOS>ATOM
      1 O1          0.1170   -0.1430   -0.1820 O.co2     1 GLA1        0.0000
      2 O2          2.0880   -1.1060    0.1800 O.co2     1 GLA1        0.0000
      3 C1          1.3670   -0.0990   -0.0360 C.2       1 GLA1        0.0000
      4 C2          2.0190    1.2820   -0.1320 C.3       1 GLA1        0.0000
      5 H2R         1.5540    1.9180    0.6490 H         1 GLA1        0.0000
      6 H2S         1.7620    1.6950   -1.1280 H         1 GLA1        0.0000
      7 C3          3.5530    1.2440    0.0540 C.3       1 GLA1        0.0000
      8 H3R         3.9970    0.5910   -0.7310 H         1 GLA1        0.0000
      9 H3S         3.7800    0.7750    1.0390 H         1 GLA1        0.0000
     10 C4          4.1980    2.6360   -0.0050 C.3       1 GLA1        0.0000
     11 H4R         3.7240    3.2690    0.7790 H         1 GLA1        0.0000
     12 H4S         3.9740    3.0900   -0.9960 H         1 GLA1        0.0000
     13 C5          5.7220    2.5790    0.2130 C.3       1 GLA1        0.0000
     14 H5R         6.1480    1.9370   -0.5910 H         1 GLA1        0.0000
     15 H5S         5.9090    2.0550    1.1780 H         1 GLA1        0.0000
     16 C6          6.3520    3.9510    0.2450 C.2       1 GLA1        0.0000
     17 H6R         5.7960    4.6940    0.8360 H         1 GLA1        0.0000
     18 C7          7.4800    4.3320   -0.3860 C.2       1 GLA1        0.0000
     19 H7R         7.8190    5.3740   -0.2690 H         1 GLA1        0.0000
     20 C8          8.3630    3.4450   -1.2320 C.3       1 GLA1        0.0000
     21 H8R         8.0270    3.5210   -2.2900 H         1 GLA1        0.0000
     22 H8S         8.2240    2.3780   -0.9520 H         1 GLA1        0.0000
     23 C9          9.8190    3.8480   -1.1660 C.2       1 GLA1        0.0000
     24 H9R        10.0070    4.9110   -1.3830 H         1 GLA1        0.0000
     25 C10        10.8820    3.0600   -0.9020 C.2       1 GLA1        0.0000
     26 H10R       11.8790    3.5280   -0.8890 H         1 GLA1        0.0000
     27 C11        10.8810    1.5810   -0.5910 C.3       1 GLA1        0.0000
     28 H11R        9.8590    1.1530   -0.6520 H         1 GLA1        0.0000
     29 H11S       11.1910    1.4480    0.4690 H         1 GLA1        0.0000
     30 C12        11.8530    0.8240   -1.4680 C.2       1 GLA1        0.0000
     31 H12R       12.8650    1.2560   -1.5110 H         1 GLA1        0.0000
     32 C13        11.6160   -0.3030   -2.1690 C.2       1 GLA1        0.0000
     33 H13R       12.4430   -0.7370   -2.7520 H         1 GLA1        0.0000
     34 C14        10.3230   -1.0780   -2.2590 C.3       1 GLA1        0.0000
     35 H14R       10.0580   -1.2400   -3.3280 H         1 GLA1        0.0000
     36 H14S        9.4720   -0.5260   -1.8060 H         1 GLA1        0.0000
     37 C15        10.4350   -2.4530   -1.5720 C.3       1 GLA1        0.0000
     38 H15R       10.6440   -2.3120   -0.4870 H         1 GLA1        0.0000
     39 H15S       11.2930   -3.0140   -2.0100 H         1 GLA1        0.0000
     40 C16         9.1730   -3.3220   -1.7240 C.3       1 GLA1        0.0000
     41 H16R        9.3880   -4.3320   -1.3040 H         1 GLA1        0.0000
     42 H16S        8.9440   -3.4500   -2.8050 H         1 GLA1        0.0000
     43 C17         7.9370   -2.7590   -1.0080 C.3       1 GLA1        0.0000
     44 H17R        7.6690   -1.7720   -1.4500 H         1 GLA1        0.0000
     45 H17S        8.1910   -2.5840    0.0630 H         1 GLA1        0.0000
     46 C18         6.7140   -3.6780   -1.0880 C.3       1 GLA1        0.0000
     47 H18R        6.9300   -4.6610   -0.6170 H         1 GLA1        0.0000
     48 H18S        6.4230   -3.8500   -2.1460 H         1 GLA1        0.0000
     49 H18T        5.8470   -3.2210   -0.5610 H         1 GLA1        0.0000
@<TRIPOS>BOND
     1   35   34 1 
     2   42   40 1 
     3   33   32 1 
     4   21   20 1 
     5   34   32 1 
     6   34   36 1 
     7   34   37 1 
     8   32   30 2 
     9   48   46 1 
    10   39   37 1 
    11   40   37 1 
    12   40   41 1 
    13   40   43 1 
    14   37   38 1 
    15   31   30 1 
    16   30   27 1 
    17   44   43 1 
    18   24   23 1 
    19   20   23 1 
    20   20   22 1 
    21   20   18 1 
    22   23   25 2 
    23    6    4 1 
    24   46   43 1 
    25   46   47 1 
    26   46   49 1 
    27   43   45 1 
    28   12   10 1 
    29   25   26 1 
    30   25   27 1 
    31    8    7 1 
    32   28   27 1 
    33   27   29 1 
    34   14   13 1 
    35   18   19 1 
    36   18   16 2 
    37    1    3 ar
    38    4    3 1 
    39    4    7 1 
    40    4    5 1 
    41    3    2 ar
    42   10    7 1 
    43   10   13 1 
    44   10   11 1 
    45    7    9 1 
    46   13   16 1 
    47   13   15 1 
    48   16   17 1 
