@<TRIPOS>MOLECULE
C:\Users\Praveer\PycharmProjects\pdb_to_mol2_converter\data\pdb\glap.pdb
   50    49     0     0     0
SMALL
GASTEIGER

@<TRIPOS>ATOM
      1 H1          0.0490   -0.0320    0.0890 H         1 GLA1        0.0000
      2 O1          1.0000    0.0060    0.1720 O.3       1 GLA1        0.0000
      3 O2          0.5370    2.1700   -0.2210 O.2       1 GLA1        0.0000
      4 C1          1.3750    1.3160   -0.0060 C.2       1 GLA1        0.0000
      5 C2          2.8820    1.5080    0.0990 C.3       1 GLA1        0.0000
      6 H2R         3.3690    0.8530   -0.6530 H         1 GLA1        0.0000
      7 H2S         3.2040    1.1850    1.1110 H         1 GLA1        0.0000
      8 C3          3.2850    2.9800   -0.1400 C.3       1 GLA1        0.0000
      9 H3R         2.7840    3.6370    0.6080 H         1 GLA1        0.0000
     10 H3S         2.9440    3.3020   -1.1510 H         1 GLA1        0.0000
     11 C4          4.8020    3.1910   -0.0430 C.3       1 GLA1        0.0000
     12 H4R         5.3000    2.5070   -0.7670 H         1 GLA1        0.0000
     13 H4S         5.1400    2.9110    0.9810 H         1 GLA1        0.0000
     14 C5          5.2110    4.6450   -0.3430 C.3       1 GLA1        0.0000
     15 H5R         4.6810    5.3070    0.3770 H         1 GLA1        0.0000
     16 H5S         4.8440    4.9110   -1.3600 H         1 GLA1        0.0000
     17 C6          6.7100    4.8150   -0.2780 C.2       1 GLA1        0.0000
     18 H6R         7.2810    4.0130   -0.7740 H         1 GLA1        0.0000
     19 C7          7.3880    5.8050    0.3300 C.2       1 GLA1        0.0000
     20 H7R         8.4900    5.7740    0.3020 H         1 GLA1        0.0000
     21 C8          6.7950    6.9980    1.0470 C.3       1 GLA1        0.0000
     22 H8R         6.7640    6.7790    2.1370 H         1 GLA1        0.0000
     23 H8S         5.7380    7.1570    0.7450 H         1 GLA1        0.0000
     24 C9          7.6230    8.2440    0.8310 C.2       1 GLA1        0.0000
     25 H9R         8.6960    8.1180    1.0450 H         1 GLA1        0.0000
     26 C10         7.2010    9.4610    0.4300 C.2       1 GLA1        0.0000
     27 H10R        7.9540   10.2560    0.3160 H         1 GLA1        0.0000
     28 C11         5.7910    9.8850    0.0930 C.3       1 GLA1        0.0000
     29 H11R        5.0760    9.0460    0.2120 H         1 GLA1        0.0000
     30 H11S        5.7480   10.1540   -0.9860 H         1 GLA1        0.0000
     31 C12         5.3760   11.0880    0.9090 C.2       1 GLA1        0.0000
     32 H12R        6.1160   11.9040    0.9340 H         1 GLA1        0.0000
     33 C13         4.2240   11.2600    1.5850 C.2       1 GLA1        0.0000
     34 H13R        4.0730   12.2030    2.1330 H         1 GLA1        0.0000
     35 C14         3.0670   10.2950    1.6860 C.3       1 GLA1        0.0000
     36 H14R        2.8100   10.1240    2.7550 H         1 GLA1        0.0000
     37 H14S        3.3170    9.3000    1.2600 H         1 GLA1        0.0000
     38 C15         1.8220   10.8390    0.9610 C.3       1 GLA1        0.0000
     39 H15R        2.0480   10.9660   -0.1220 H         1 GLA1        0.0000
     40 H15S        1.5660   11.8420    1.3730 H         1 GLA1        0.0000
     41 C16         0.5860    9.9360    1.1070 C.3       1 GLA1        0.0000
     42 H16R       -0.2900   10.4580    0.6590 H         1 GLA1        0.0000
     43 H16S        0.3700    9.7850    2.1880 H         1 GLA1        0.0000
     44 C17         0.7330    8.5670    0.4280 C.3       1 GLA1        0.0000
     45 H17R        1.5750    8.0120    0.8990 H         1 GLA1        0.0000
     46 H17S        0.9940    8.7250   -0.6430 H         1 GLA1        0.0000
     47 C18        -0.5340    7.7120    0.5200 C.3       1 GLA1        0.0000
     48 H18R       -1.3870    8.2300    0.0330 H         1 GLA1        0.0000
     49 H18S       -0.7960    7.5260    1.5840 H         1 GLA1        0.0000
     50 H18T       -0.3830    6.7320    0.0190 H         1 GLA1        0.0000
@<TRIPOS>BOND
     1   16   14 1 
     2   10    8 1 
     3   30   28 1 
     4   18   17 1 
     5   12   11 1 
     6    6    5 1 
     7   46   44 1 
     8   14   17 1 
     9   14   11 1 
    10   14   15 1 
    11   17   19 2 
    12    3    4 2 
    13    8   11 1 
    14    8    5 1 
    15    8    9 1 
    16   39   38 1 
    17   11   13 1 
    18    4    5 1 
    19    4    2 1 
    20   50   47 1 
    21   48   47 1 
    22    1    2 1 
    23   28   29 1 
    24   28   26 1 
    25   28   31 1 
    26    5    7 1 
    27   20   19 1 
    28   27   26 1 
    29   19   21 1 
    30   44   47 1 
    31   44   45 1 
    32   44   41 1 
    33   26   24 2 
    34   47   49 1 
    35   42   41 1 
    36   23   21 1 
    37   24   25 1 
    38   24   21 1 
    39   31   32 1 
    40   31   33 2 
    41   38   41 1 
    42   38   40 1 
    43   38   35 1 
    44   21   22 1 
    45   41   43 1 
    46   37   35 1 
    47   33   35 1 
    48   33   34 1 
    49   35   36 1 
