@<TRIPOS>MOLECULE
C:\Users\Praveer\PycharmProjects\pdb_to_mol2_converter\data\pdb\glyc.pdb
   23    22     0     0     0
SMALL
GASTEIGER

@<TRIPOS>ATOM
      1 C3          2.1590    1.3430    0.0410 C.3       1 GLY1        0.0000
      2 H31         1.7840    1.9360    0.9020 H         1 GLY1        0.0000
      3 H32         1.9060    1.8770   -0.9000 H         1 GLY1        0.0000
      4 H33         3.2650    1.2720    0.1190 H         1 GLY1        0.0000
      5 C1         -0.0150   -0.0180   -0.0180 C.3       1 GLY1        0.0000
      6 H11        -0.3830    0.6160    0.8200 H         1 GLY1        0.0000
      7 H12        -0.3150    0.4570   -0.9800 H         1 GLY1        0.0000
      8 O4         -0.5710   -1.3550    0.0920 O.3       1 GLY1        0.0000
      9 C5         -1.8910   -1.3510   -0.0290 C.2       1 GLY1        0.0000
     10 O6         -2.5860   -0.3670   -0.1890 O.2       1 GLY1        0.0000
     11 C7         -2.4030   -2.7650    0.0680 C.3       1 GLY1        0.0000
     12 H71        -2.0400   -3.2290    1.0080 H         1 GLY1        0.0000
     13 H72        -2.0390   -3.3510   -0.8000 H         1 GLY1        0.0000
     14 H73        -3.5120   -2.7490    0.0670 H         1 GLY1        0.0000
     15 C2          1.5350   -0.0600    0.0400 C.3       1 GLY1        0.0000
     16 H21         1.8020   -0.5900    0.9860 H         1 GLY1        0.0000
     17 O8          2.0250   -0.7550   -1.1140 O.3       1 GLY1        0.0000
     18 C9          3.1860   -1.3550   -0.9360 C.2       1 GLY1        0.0000
     19 O10         3.8690   -1.3340    0.0690 O.2       1 GLY1        0.0000
     20 C11         3.5490   -2.0940   -2.2000 C.3       1 GLY1        0.0000
     21 H111        3.6940   -1.3700   -3.0260 H         1 GLY1        0.0000
     22 H112        2.7370   -2.8020   -2.4620 H         1 GLY1        0.0000
     23 H113        4.4900   -2.6570   -2.0290 H         1 GLY1        0.0000
@<TRIPOS>BOND
     1   21   20 1 
     2   22   20 1 
     3   20   23 1 
     4   20   18 1 
     5   17   18 1 
     6   17   15 1 
     7    7    5 1 
     8   18   19 2 
     9    3    1 1 
    10   13   11 1 
    11   10    9 2 
    12    9   11 1 
    13    9    8 1 
    14    5   15 1 
    15    5    8 1 
    16    5    6 1 
    17   15    1 1 
    18   15   16 1 
    19    1    4 1 
    20    1    2 1 
    21   14   11 1 
    22   11   12 1 
