@<TRIPOS>MOLECULE
C:\Users\Praveer\PycharmProjects\pdb_to_mol2_converter\data\pdb\glyn.pdb
   10     9     0     0     0
SMALL
GASTEIGER

@<TRIPOS>ATOM
      1 N          -0.0280    0.2060   -0.1450 N.3       1 GLY1        0.0000
      2 HT1        -0.4590    0.4860    0.7260 H         1 GLY1        0.0000
      3 HT2        -0.5180   -0.6310   -0.4410 H         1 GLY1        0.0000
      4 CA          1.4800    0.0290   -0.0590 C.3       1 GLY1        0.0000
      5 HA1         1.8060   -0.5770   -0.9300 H         1 GLY1        0.0000
      6 HA2         1.7000   -0.5670    0.8530 H         1 GLY1        0.0000
      7 C           2.4250    1.2830    0.0120 C.2       1 GLY1        0.0000
      8 OT1         2.8050    1.8430    1.0300 O.2       1 GLY1        0.0000
      9 OT2         2.8910    1.7570   -1.2120 O.3       1 GLY1        0.0000
     10 HO2         3.4270    2.5290   -1.0470 H         1 GLY1        0.0000
@<TRIPOS>BOND
     1    9   10 1 
     2    9    7 1 
     3    5    4 1 
     4    3    1 1 
     5    1    4 1 
     6    1    2 1 
     7    4    7 1 
     8    4    6 1 
     9    7    8 2 
