@<TRIPOS>MOLECULE
C:\Users\Praveer\PycharmProjects\pdb_to_mol2_converter\data\pdb\gpc.pdb
   36    35     0     0     0
SMALL
GASTEIGER

@<TRIPOS>ATOM
      1 N           1.2370   -0.1840    1.2960 N.4       1 GPC1        0.0000
      2 C1          1.8780    1.3150    1.6850 C.3       1 GPC1        0.0000
      3 C2          0.3880    0.7050    0.8930 C.3       1 GPC1        0.0000
      4 C3          1.1340   -1.5820    1.9670 C.3       1 GPC1        0.0000
      5 C4         -0.2040   -0.6090    1.1140 C.3       1 GPC1        0.0000
      6 H11         2.7130    1.5760    0.9850 H         1 GPC1        0.0000
      7 H12         2.6690    1.4150    2.4590 H         1 GPC1        0.0000
      8 H21         0.6540    1.4550    0.0860 H         1 GPC1        0.0000
      9 H22        -0.0820    1.3680    1.7440 H         1 GPC1        0.0000
     10 H23        -0.4990    0.6710    0.2010 H         1 GPC1        0.0000
     11 H31         0.5880   -2.2120    1.3490 H         1 GPC1        0.0000
     12 H32         0.9880   -0.9480    2.8140 H         1 GPC1        0.0000
     13 H33         0.1880   -1.7790    2.6660 H         1 GPC1        0.0000
     14 H41         0.3550   -0.9330    0.1090 H         1 GPC1        0.0000
     15 H42        -1.0350    0.0130    1.2650 H         1 GPC1        0.0000
     16 H43        -0.7650   -1.6900    1.2790 H         1 GPC1        0.0000
     17 C5          1.2390    2.8840    1.3550 C.3       1 GPC1        0.0000
     18 H51         1.7990    3.1300    0.4430 H         1 GPC1        0.0000
     19 H52         1.7740    3.6830    1.9500 H         1 GPC1        0.0000
     20 P          -1.7220    2.9600    0.2930 P.3       1 GPC1        0.0000
     21 O3         -2.4240    3.9650   -0.1320 O.2       1 GPC1        0.0000
     22 O4         -2.1420    1.9450    1.5130 O.3       1 GPC1        0.0000
     23 O1         -0.1570    3.3300    1.0930 O.3       1 GPC1        0.0000
     24 O2         -1.3460    1.7140   -0.9080 O.3       1 GPC1        0.0000
     25 CG1        -0.5070    0.8490   -1.9800 C.3       1 GPC1        0.0000
     26 HG11        0.2060    0.1490   -1.6440 H         1 GPC1        0.0000
     27 HG12       -0.9880   -0.0970   -2.2680 H         1 GPC1        0.0000
     28 CG2         0.5210    1.7840   -2.6120 C.3       1 GPC1        0.0000
     29 HG21        1.4450    1.4730   -1.9890 H         1 GPC1        0.0000
     30 OG2         1.6270    1.5120   -3.5050 O.3       1 GPC1        0.0000
     31 HO2         2.0210    2.4310   -3.3480 H         1 GPC1        0.0000
     32 CG3         0.3770    3.1970   -2.2600 C.3       1 GPC1        0.0000
     33 HG31        1.2910    3.7600   -2.2520 H         1 GPC1        0.0000
     34 HG32        0.4360    3.0340   -1.1820 H         1 GPC1        0.0000
     35 OG3        -0.7640    3.9170   -2.6000 O.3       1 GPC1        0.0000
     36 HO3        -0.6300    4.4960   -1.8380 H         1 GPC1        0.0000
@<TRIPOS>BOND
     1   30   31 1 
     2   30   28 1 
     3   28   32 1 
     4   28   29 1 
     5   28   25 1 
     6   35   32 1 
     7   35   36 1 
     8   27   25 1 
     9   32   33 1 
    10   32   34 1 
    11   25   26 1 
    12   25   24 1 
    13   24   20 1 
    14   21   20 2 
    15    8    3 1 
    16   14    5 1 
    17   10    3 1 
    18   20   23 1 
    19   20   22 1 
    20   18   17 1 
    21    3    1 1 
    22    3    9 1 
    23    6    2 1 
    24   23   17 1 
    25    5   15 1 
    26    5   16 1 
    27    5    1 1 
    28    1    2 1 
    29    1    4 1 
    30   11    4 1 
    31   17    2 1 
    32   17   19 1 
    33    2    7 1 
    34    4   13 1 
    35    4   12 1 
