@<TRIPOS>MOLECULE
C:\Users\Praveer\PycharmProjects\pdb_to_mol2_converter\data\pdb\guan.pdb
   10     9     0     0     0
SMALL
GASTEIGER

@<TRIPOS>ATOM
      1 C           1.6820    1.1820   -0.0000 C.cat     1 GUA1        0.0000
      2 N1          1.0180    0.0310   -0.0000 N.pl3     1 GUA1        0.0000
      3 H11         0.0250    0.0370    0.0000 H         1 GUA1        0.0000
      4 H12         1.5190   -0.8260    0.0000 H         1 GUA1        0.0000
      5 N2          1.0180    2.3330   -0.0000 N.pl3     1 GUA1        0.0000
      6 H21         0.0250    2.3270    0.0000 H         1 GUA1        0.0000
      7 H22         1.5190    3.1900   -0.0000 H         1 GUA1        0.0000
      8 N3          3.0120    1.1820   -0.0000 N.pl3     1 GUA1        0.0000
      9 H31         3.5030    0.3200    0.0000 H         1 GUA1        0.0000
     10 H32         3.5030    2.0450    0.0000 H         1 GUA1        0.0000
@<TRIPOS>BOND
     1    1    2 2 
     2    1    5 1 
     3    1    8 1 
     4    2    3 1 
     5    2    4 1 
     6    5    6 1 
     7    5    7 1 
     8    8    9 1 
     9    8   10 1 
