@<TRIPOS>MOLECULE
C:\Users\Praveer\PycharmProjects\pdb_to_mol2_converter\data\pdb\hdz1b.pdb
   22    22     0     0     0
SMALL
GASTEIGER

@<TRIPOS>ATOM
      1 C1         -0.1300    0.1160   -0.0010 C.3       1 HDZ1        0.0000
      2 H11        -0.6110   -0.8870   -0.0020 H         1 HDZ1        0.0000
      3 H12        -0.4510    0.6660   -0.9090 H         1 HDZ1        0.0000
      4 H13        -0.4560    0.6670    0.9060 H         1 HDZ1        0.0000
      5 C2          1.3450   -0.0550    0.0040 C.2       1 HDZ1        0.0000
      6 O2          1.8210   -1.1870    0.0090 O.2       1 HDZ1        0.0000
      7 N3          2.0630    1.0890    0.0020 N.am      1 HDZ1        0.0000
      8 H3          1.5790    1.9520   -0.0030 H         1 HDZ1        0.0000
      9 N4          3.4260    1.0280    0.0060 N.2       1 HDZ1        0.0000
     10 C5          4.0390    2.1530   -0.0030 C.2       1 HDZ1        0.0000
     11 H5          3.4970    3.1080   -0.0140 H         1 HDZ1        0.0000
     12 C6G         5.5100    2.2100   -0.0010 C.ar      1 HDZ1        0.0000
     13 C6D1        6.1200    3.4820   -0.0190 C.ar      1 HDZ1        0.0000
     14 H6D1        5.5170    4.3780   -0.0340 H         1 HDZ1        0.0000
     15 C6D2        6.3460    1.0700    0.0180 C.ar      1 HDZ1        0.0000
     16 H6D2        5.9040    0.0830    0.0320 H         1 HDZ1        0.0000
     17 C6E1        7.5160    3.6120   -0.0180 C.ar      1 HDZ1        0.0000
     18 H6E1        7.9700    4.5940   -0.0320 H         1 HDZ1        0.0000
     19 C6E2        7.7410    1.1980    0.0200 C.ar      1 HDZ1        0.0000
     20 H6E2        8.3640    0.3150    0.0340 H         1 HDZ1        0.0000
     21 C6Z         8.3240    2.4700    0.0020 C.ar      1 HDZ1        0.0000
     22 H6Z         9.4000    2.5690    0.0020 H         1 HDZ1        0.0000
@<TRIPOS>BOND
     1    3    1 1 
     2   14   13 1 
     3   18   17 1 
     4   13   17 ar
     5   13   12 ar
     6   17   21 ar
     7   11   10 1 
     8    8    7 1 
     9   10   12 1 
    10   10    9 2 
    11    2    1 1 
    12    1    5 1 
    13    1    4 1 
    14   12   15 ar
    15    7    5 am
    16    7    9 1 
    17   21   22 1 
    18   21   19 ar
    19    5    6 2 
    20   15   19 ar
    21   15   16 1 
    22   19   20 1 
