@<TRIPOS>MOLECULE
C:\Users\Praveer\PycharmProjects\pdb_to_mol2_converter\data\pdb\hdz1.pdb
   15    14     0     0     0
SMALL
GASTEIGER

@<TRIPOS>ATOM
      1 C1          0.0000    0.0290    0.0000 C.3       1 HDZ1        0.0000
      2 H11        -0.4240   -0.9990   -0.0000 H         1 HDZ1        0.0000
      3 H12        -0.3530    0.5620   -0.9080 H         1 HDZ1        0.0000
      4 H13        -0.3530    0.5620    0.9080 H         1 HDZ1        0.0000
      5 C2          1.4830   -0.0570    0.0000 C.2       1 HDZ1        0.0000
      6 O2          2.0260   -1.1580    0.0000 O.2       1 HDZ1        0.0000
      7 N3          2.1280    1.1290    0.0000 N.am      1 HDZ1        0.0000
      8 H3          1.5890    1.9590    0.0000 H         1 HDZ1        0.0000
      9 N4          3.4920    1.1590    0.0000 N.2       1 HDZ1        0.0000
     10 C5          4.0220    2.3180    0.0000 C.2       1 HDZ1        0.0000
     11 H5          3.3920    3.2210   -0.0000 H         1 HDZ1        0.0000
     12 C6          5.5160    2.5190   -0.0000 C.3       1 HDZ1        0.0000
     13 H61         6.0590    1.5470    0.0000 H         1 HDZ1        0.0000
     14 H62         5.8440    3.0820    0.8990 H         1 HDZ1        0.0000
     15 H63         5.8440    3.0820   -0.8990 H         1 HDZ1        0.0000
@<TRIPOS>BOND
     1    3    1 1 
     2   15   12 1 
     3    1    2 1 
     4    1    5 1 
     5    1    4 1 
     6    5    6 2 
     7    5    7 am
     8    7    8 1 
     9    7    9 1 
    10    9   10 2 
    11   10   11 1 
    12   10   12 1 
    13   12   13 1 
    14   12   14 1 
