@<TRIPOS>MOLECULE
C:\Users\Praveer\PycharmProjects\pdb_to_mol2_converter\data\pdb\hdz2.pdb
   34    36     0     0     0
SMALL
GASTEIGER

@<TRIPOS>ATOM
      1 HG         -0.7240   -0.9990    0.0000 H         1 HDZ1        0.0000
      2 CG         -0.1010   -0.1180    0.0000 C.ar      1 HDZ1        0.0000
      3 CD2        -0.5600    1.2410    0.0000 C.ar      1 HDZ1        0.0000
      4 CD1         1.2630   -0.1000   -0.0000 C.ar      1 HDZ1        0.0000
      5 HD1         1.9610   -0.9320   -0.0000 H         1 HDZ1        0.0000
      6 NE1         1.6500    1.2270   -0.0000 N.ar      1 HDZ1        0.0000
      7 HE1         2.5890    1.6130   -0.0000 H         1 HDZ1        0.0000
      8 CE2         0.5660    2.0780   -0.0000 C.ar      1 HDZ1        0.0000
      9 CE3        -1.8340    1.7880    0.0000 C.ar      1 HDZ1        0.0000
     10 HE3        -2.6990    1.1400    0.0000 H         1 HDZ1        0.0000
     11 CZ2         0.4390    3.4680   -0.0000 C.ar      1 HDZ1        0.0000
     12 CZ3        -1.9880    3.1770    0.0000 C.ar      1 HDZ1        0.0000
     13 HZ3        -2.9810    3.6070    0.0000 H         1 HDZ1        0.0000
     14 CH2        -0.8660    4.0150    0.0000 C.ar      1 HDZ1        0.0000
     15 HH2        -1.0380    5.0810    0.0000 H         1 HDZ1        0.0000
     16 C2          1.6760    4.3110   -0.0000 C.2       1 HDZ1        0.0000
     17 O2          2.7840    3.7690   -0.0000 O.2       1 HDZ1        0.0000
     18 N3          1.5240    5.6590   -0.0000 N.am      1 HDZ1        0.0000
     19 H3          0.6110    6.0400   -0.0000 H         1 HDZ1        0.0000
     20 N4          2.6420    6.4390   -0.0000 N.2       1 HDZ1        0.0000
     21 C5          2.4620    7.7070   -0.0000 C.2       1 HDZ1        0.0000
     22 H5          1.4580    8.1530   -0.0000 H         1 HDZ1        0.0000
     23 CPG         3.6200    8.6160   -0.0000 C.ar      1 HDZ1        0.0000
     24 CPD1        3.3700   10.0030   -0.0000 C.ar      1 HDZ1        0.0000
     25 HPD1        2.3570   10.3770   -0.0000 H         1 HDZ1        0.0000
     26 CPD2        4.9690    8.1830   -0.0000 C.ar      1 HDZ1        0.0000
     27 HPD2        5.1880    7.1250   -0.0000 H         1 HDZ1        0.0000
     28 CPE1        4.4290   10.9240   -0.0000 C.ar      1 HDZ1        0.0000
     29 HPE1        4.2280   11.9850   -0.0000 H         1 HDZ1        0.0000
     30 CPE2        6.0250    9.1040   -0.0000 C.ar      1 HDZ1        0.0000
     31 HPE2        7.0440    8.7450   -0.0000 H         1 HDZ1        0.0000
     32 CPZ         5.7520   10.4740   -0.0000 C.ar      1 HDZ1        0.0000
     33 OPH         6.8050   11.4080   -0.0000 O.3       1 HDZ1        0.0000
     34 HPH         7.6300   10.9190   -0.0000 H         1 HDZ1        0.0000
@<TRIPOS>BOND
     1    1    2 1 
     2    2    3 ar
     3    2    4 ar
     4    3    8 ar
     5    3    9 ar
     6    4    5 1 
     7    4    6 ar
     8    6    7 1 
     9    6    8 ar
    10    8   11 ar
    11    9   10 1 
    12    9   12 ar
    13   11   14 ar
    14   11   16 1 
    15   12   13 1 
    16   12   14 ar
    17   14   15 1 
    18   16   17 2 
    19   16   18 am
    20   18   19 1 
    21   18   20 1 
    22   20   21 2 
    23   21   22 1 
    24   21   23 1 
    25   23   24 ar
    26   23   26 ar
    27   24   25 1 
    28   24   28 ar
    29   26   27 1 
    30   26   30 ar
    31   28   29 1 
    32   28   32 ar
    33   30   31 1 
    34   30   32 ar
    35   32   33 1 
    36   33   34 1 
