@<TRIPOS>MOLECULE
C:\Users\Praveer\PycharmProjects\pdb_to_mol2_converter\data\pdb\hdzn.pdb
    6     5     0     0     0
SMALL
GASTEIGER

@<TRIPOS>ATOM
      1 N1          0.9500    0.0380   -0.2830 N.3       1 HDZ1        0.0000
      2 H11         0.0250   -0.0520    0.1380 H         1 HDZ1        0.0000
      3 H12         1.5260   -0.7280    0.0700 H         1 HDZ1        0.0000
      4 N2          1.5720    1.2860    0.0670 N.3       1 HDZ1        0.0000
      5 H21         1.2200    1.6480    0.9530 H         1 HDZ1        0.0000
      6 H22         1.3590    1.9760   -0.6560 H         1 HDZ1        0.0000
@<TRIPOS>BOND
     1    6    4 1 
     2    1    4 1 
     3    1    3 1 
     4    1    2 1 
     5    4    5 1 
