@<TRIPOS>MOLECULE
C:\Users\Praveer\PycharmProjects\pdb_to_mol2_converter\data\pdb\heme.pdb
   73    80     0     0     0
SMALL
GASTEIGER

@<TRIPOS>ATOM
      1 FE          0.0430   -0.0180    0.9400 Fe        1 HEM1        0.0000
      2 NA          1.9670    0.0050    0.3760 N.ar      1 HEM1        0.0000
      3 NB          0.0230    1.9290    0.4490 N.ar      1 HEM1        0.0000
      4 NC         -1.8970   -0.0180    0.4210 N.ar      1 HEM1        0.0000
      5 ND          0.0480   -1.9250    0.3200 N.ar      1 HEM1        0.0000
      6 C1A         2.8280   -1.0560    0.1710 C.ar      1 HEM1        0.0000
      7 C2A         4.2100   -0.6320    0.0260 C.ar      1 HEM1        0.0000
      8 C3A         4.1890    0.7100    0.0730 C.ar      1 HEM1        0.0000
      9 C4A         2.8060    1.0900    0.2560 C.ar      1 HEM1        0.0000
     10 C1B         1.0880    2.7820    0.2780 C.ar      1 HEM1        0.0000
     11 C2B         0.6860    4.1660    0.1300 C.ar      1 HEM1        0.0000
     12 C3B        -0.6690    4.1900    0.2410 C.ar      1 HEM1        0.0000
     13 C4B        -1.0550    2.7820    0.3540 C.ar      1 HEM1        0.0000
     14 C1C        -2.7450    1.0500    0.2570 C.ar      1 HEM1        0.0000
     15 C2C        -4.1330    0.6520    0.0920 C.ar      1 HEM1        0.0000
     16 C3C        -4.1560   -0.7030    0.1950 C.ar      1 HEM1        0.0000
     17 C4C        -2.7510   -1.0930    0.3030 C.ar      1 HEM1        0.0000
     18 C1D        -1.0220   -2.7770    0.1660 C.ar      1 HEM1        0.0000
     19 C2D        -0.6160   -4.1500   -0.0560 C.ar      1 HEM1        0.0000
     20 C3D         0.7240   -4.1400   -0.0890 C.ar      1 HEM1        0.0000
     21 C4D         1.1250   -2.7620    0.1060 C.ar      1 HEM1        0.0000
     22 CHA         2.4190   -2.3480    0.0410 C.2       1 HEM1        0.0000
     23 HA          3.1700   -3.1070   -0.1620 H         1 HEM1        0.0000
     24 CHB         2.3870    2.3810    0.2190 C.2       1 HEM1        0.0000
     25 HB          3.1650    3.1350    0.1960 H         1 HEM1        0.0000
     26 CHC        -2.3460    2.3510    0.2510 C.2       1 HEM1        0.0000
     27 HC         -3.1210    3.1000    0.1530 H         1 HEM1        0.0000
     28 CHD        -2.3220   -2.3800    0.1630 C.2       1 HEM1        0.0000
     29 HD         -3.0570   -3.1430   -0.0660 H         1 HEM1        0.0000
     30 CMA         5.3720    1.6290   -0.0100 C.3       1 HEM1        0.0000
     31 HMA1        5.5390    1.9200   -1.0690 H         1 HEM1        0.0000
     32 HMA2        6.2830    1.1140    0.3680 H         1 HEM1        0.0000
     33 HMA3        5.2110    2.5400    0.6020 H         1 HEM1        0.0000
     34 CAA         5.4470   -1.4880   -0.0520 C.3       1 HEM1        0.0000
     35 HAA1        5.2020   -2.5500    0.1650 H         1 HEM1        0.0000
     36 HAA2        6.1350   -1.1530    0.7550 H         1 HEM1        0.0000
     37 CBA         6.1930   -1.4090   -1.4120 C.3       1 HEM1        0.0000
     38 HBA1        6.3020   -0.3560   -1.7350 H         1 HEM1        0.0000
     39 HBA2        5.6260   -1.9520   -2.1920 H         1 HEM1        0.0000
     40 CGA         7.6110   -1.9880   -1.3770 C.2       1 HEM1        0.0000
     41 O1A         8.0840   -2.3970   -0.2860 O.co2     1 HEM1        0.0000
     42 O2A         8.2460   -1.9890   -2.4650 O.co2     1 HEM1        0.0000
     43 CMB         1.6250    5.3050   -0.1660 C.3       1 HEM1        0.0000
     44 HMB1        2.5700    4.9380   -0.6170 H         1 HEM1        0.0000
     45 HMB2        1.8650    5.8480    0.7720 H         1 HEM1        0.0000
     46 HMB3        1.1680    6.0040   -0.8970 H         1 HEM1        0.0000
     47 CAB        -1.5600    5.2690    0.3300 C.2       1 HEM1        0.0000
     48 HAB        -2.6320    5.0430    0.4210 H         1 HEM1        0.0000
     49 CBB        -1.2610    6.5850    0.3610 C.2       1 HEM1        0.0000
     50 HBB1       -0.2320    6.9610    0.3220 H         1 HEM1        0.0000
     51 HBB2       -2.0560    7.3400    0.4590 H         1 HEM1        0.0000
     52 CMC        -5.2760    1.5910   -0.2050 C.3       1 HEM1        0.0000
     53 HMC1       -4.9170    2.5320   -0.6710 H         1 HEM1        0.0000
     54 HMC2       -5.8120    1.8380    0.7350 H         1 HEM1        0.0000
     55 HMC3       -5.9820    1.1230   -0.9230 H         1 HEM1        0.0000
     56 CAC        -5.2300   -1.5980    0.2920 C.2       1 HEM1        0.0000
     57 HAC        -4.9960   -2.6700    0.3800 H         1 HEM1        0.0000
     58 CBC        -6.5460   -1.3020    0.3400 C.2       1 HEM1        0.0000
     59 HBC1       -6.9260   -0.2730    0.3110 H         1 HEM1        0.0000
     60 HBC2       -7.2980   -2.0990    0.4440 H         1 HEM1        0.0000
     61 CMD        -1.4970   -5.3590   -0.1630 C.3       1 HEM1        0.0000
     62 HMD1       -1.5640   -5.6860   -1.2230 H         1 HEM1        0.0000
     63 HMD2       -2.5130   -5.1490    0.2300 H         1 HEM1        0.0000
     64 HMD3       -1.0600   -6.1870    0.4370 H         1 HEM1        0.0000
     65 CAD         1.6230   -5.3360   -0.1860 C.3       1 HEM1        0.0000
     66 HAD1        2.4170   -5.1580   -0.9440 H         1 HEM1        0.0000
     67 HAD2        1.0330   -6.2140   -0.5330 H         1 HEM1        0.0000
     68 CBD         2.2760   -5.6700    1.1790 C.3       1 HEM1        0.0000
     69 HBD1        1.5080   -5.6330    1.9780 H         1 HEM1        0.0000
     70 HBD2        3.0670   -4.9300    1.4160 H         1 HEM1        0.0000
     71 CGD         2.9090   -7.0610    1.2490 C.2       1 HEM1        0.0000
     72 O1D         2.8650   -7.8060    0.2380 O.co2     1 HEM1        0.0000
     73 O2D         3.4220   -7.3920    2.3510 O.co2     1 HEM1        0.0000
@<TRIPOS>BOND
     1   42   40 ar
     2   39   37 1 
     3   38   37 1 
     4   37   40 1 
     5   37   34 1 
     6   40   41 ar
     7   62   61 1 
     8   31   30 1 
     9   66   65 1 
    10   55   52 1 
    11   46   43 1 
    12   53   52 1 
    13   44   43 1 
    14   67   65 1 
    15   52   15 1 
    16   52   54 1 
    17   65   20 1 
    18   65   68 1 
    19   43   11 1 
    20   43   45 1 
    21   61   19 1 
    22   61   63 1 
    23   61   64 1 
    24   23   22 1 
    25   20   19 ar
    26   20   21 ar
    27   29   28 1 
    28   19   18 ar
    29   34    7 1 
    30   34   35 1 
    31   34   36 1 
    32   30    8 1 
    33   30   32 1 
    34   30   33 1 
    35    7    8 ar
    36    7    6 ar
    37   22   21 2 
    38   22    6 1 
    39    8    9 ar
    40   15   16 ar
    41   15   14 ar
    42   21    5 ar
    43   11   12 ar
    44   11   10 ar
    45   27   26 1 
    46   28   18 2 
    47   28   17 1 
    48   18    5 ar
    49    6    2 ar
    50   16   56 1 
    51   16   17 ar
    52   25   24 1 
    53   24    9 2 
    54   24   10 1 
    55   72   71 ar
    56   12   47 1 
    57   12   13 ar
    58   26   14 2 
    59   26   13 1 
    60    9    2 ar
    61   14    4 ar
    62   10    3 ar
    63   56   58 2 
    64   56   57 1 
    65   17    4 ar
    66   59   58 1 
    67    5    1 1 
    68   50   49 1 
    69   47   49 2 
    70   47   48 1 
    71   58   60 1 
    72   13    3 ar
    73   49   51 1 
    74    2    1 1 
    75    4    1 1 
    76    3    1 1 
    77   68   71 1 
    78   68   70 1 
    79   68   69 1 
    80   71   73 ar
