@<TRIPOS>MOLECULE
C:\Users\Praveer\PycharmProjects\pdb_to_mol2_converter\data\pdb\hep3.pdb
   14    13     0     0     0
SMALL
GASTEIGER

@<TRIPOS>ATOM
      1 C1         -0.0130   -0.0060   -0.0000 C.2       1 HEP1        0.0000
      2 H11        -0.5790   -0.9500   -0.0000 H         1 HEP1        0.0000
      3 H12        -0.5830    0.9360   -0.0000 H         1 HEP1        0.0000
      4 C2          1.3320   -0.0060   -0.0000 C.2       1 HEP1        0.0000
      5 H21         1.8550   -0.9780    0.0000 H         1 HEP1        0.0000
      6 C3          2.1500    1.2210   -0.0000 C.2       1 HEP1        0.0000
      7 H31         1.6160    2.1850   -0.0000 H         1 HEP1        0.0000
      8 C4          3.4960    1.2300    0.0000 C.2       1 HEP1        0.0000
      9 H41         4.0310    0.2670    0.0000 H         1 HEP1        0.0000
     10 C5          4.3150    2.4580    0.0000 C.2       1 HEP1        0.0000
     11 H51         3.7920    3.4300   -0.0000 H         1 HEP1        0.0000
     12 C6          5.6600    2.4570    0.0000 C.2       1 HEP1        0.0000
     13 H61         6.2300    1.5150    0.0000 H         1 HEP1        0.0000
     14 H62         6.2260    3.4020    0.0000 H         1 HEP1        0.0000
@<TRIPOS>BOND
     1    1    2 1 
     2    1    3 1 
     3    1    4 2 
     4    4    5 1 
     5    4    6 1 
     6    6    7 1 
     7    6    8 2 
     8    8    9 1 
     9    8   10 1 
    10   10   11 1 
    11   10   12 2 
    12   12   13 1 
    13   12   14 1 
