@<TRIPOS>MOLECULE
C:\Users\Praveer\PycharmProjects\pdb_to_mol2_converter\data\pdb\hex3.pdb
   14    13     0     0     0
SMALL
GASTEIGER

@<TRIPOS>ATOM
      1 C1         -0.0160   -0.0070   -0.0000 C.2       1 HEX1        0.0000
      2 H11        -0.5820   -0.9510   -0.0000 H         1 HEX1        0.0000
      3 H12        -0.5870    0.9350   -0.0000 H         1 HEX1        0.0000
      4 C2          1.3290   -0.0080   -0.0000 C.2       1 HEX1        0.0000
      5 H21         1.8500   -0.9810    0.0000 H         1 HEX1        0.0000
      6 C3          2.1390    1.2030   -0.0000 C.2       1 HEX1        0.0000
      7 H31         1.6080    2.1680   -0.0000 H         1 HEX1        0.0000
      8 C4          3.4860    1.2040    0.0000 C.2       1 HEX1        0.0000
      9 H41         4.0170    0.2390    0.0000 H         1 HEX1        0.0000
     10 C5          4.2950    2.4150    0.0000 C.2       1 HEX1        0.0000
     11 H51         3.7750    3.3880   -0.0000 H         1 HEX1        0.0000
     12 C6          5.6410    2.4130    0.0000 C.2       1 HEX1        0.0000
     13 H61         6.2110    1.4710    0.0000 H         1 HEX1        0.0000
     14 H62         6.2070    3.3580    0.0000 H         1 HEX1        0.0000
@<TRIPOS>BOND
     1    1    2 1 
     2    1    3 1 
     3    1    4 2 
     4    4    5 1 
     5    4    6 1 
     6    6    7 1 
     7    6    8 2 
     8    8    9 1 
     9    8   10 1 
    10   10   11 1 
    11   10   12 2 
    12   12   13 1 
    13   12   14 1 
