@<TRIPOS>MOLECULE
C:\Users\Praveer\PycharmProjects\pdb_to_mol2_converter\data\pdb\hexa.pdb
   20    19     0     0     0
SMALL
GASTEIGER

@<TRIPOS>ATOM
      1 H11        -0.3930   -1.0260    0.0030 H         1 HEX1        0.0000
      2 H12        -0.3670    0.5330   -0.9030 H         1 HEX1        0.0000
      3 H13        -0.3690    0.5380    0.8990 H         1 HEX1        0.0000
      4 C1          0.0130    0.0080    0.0000 C.3       1 HEX1        0.0000
      5 H21         1.9030   -0.5700   -0.8930 H         1 HEX1        0.0000
      6 H22         1.9010   -0.5640    0.9030 H         1 HEX1        0.0000
      7 C2          1.5440   -0.0140    0.0020 C.3       1 HEX1        0.0000
      8 H31         1.8210    1.9440    0.8950 H         1 HEX1        0.0000
      9 H32         1.8220    1.9390   -0.9020 H         1 HEX1        0.0000
     10 C3          2.1720    1.3860   -0.0010 C.3       1 HEX1        0.0000
     11 H41         4.0580    0.7910   -0.8980 H         1 HEX1        0.0000
     12 H42         4.0570    0.7940    0.8990 H         1 HEX1        0.0000
     13 C4          3.7070    1.3480   -0.0010 C.3       1 HEX1        0.0000
     14 H51         3.9770    3.3020    0.8950 H         1 HEX1        0.0000
     15 H52         3.9770    3.3010   -0.9000 H         1 HEX1        0.0000
     16 C5          4.3350    2.7480   -0.0020 C.3       1 HEX1        0.0000
     17 H61         6.2470    2.1990   -0.9030 H         1 HEX1        0.0000
     18 H62         6.2470    2.1990    0.8990 H         1 HEX1        0.0000
     19 H63         6.2720    3.7600   -0.0020 H         1 HEX1        0.0000
     20 C6          5.8660    2.7260   -0.0020 C.3       1 HEX1        0.0000
@<TRIPOS>BOND
     1    2    4 1 
     2   17   20 1 
     3    9   10 1 
     4   15   16 1 
     5   11   13 1 
     6    5    7 1 
     7   16   20 1 
     8   16   13 1 
     9   16   14 1 
    10   19   20 1 
    11   20   18 1 
    12   10   13 1 
    13   10    7 1 
    14   10    8 1 
    15   13   12 1 
    16    4    7 1 
    17    4    1 1 
    18    4    3 1 
    19    7    6 1 
