@<TRIPOS>MOLECULE
C:\Users\Praveer\PycharmProjects\pdb_to_mol2_converter\data\pdb\hexd.pdb
   22    21     0     0     0
SMALL
GASTEIGER

@<TRIPOS>ATOM
      1 H11        -0.3810    0.5270    0.9100 H         1 HEX1        0.0000
      2 H12        -0.3840    0.5340   -0.9020 H         1 HEX1        0.0000
      3 HO1        -1.4290   -1.3210    0.0010 H         1 HEX1        0.0000
      4 C1         -0.0060    0.0040    0.0010 C.3       1 HEX1        0.0000
      5 O1         -0.4680   -1.3420   -0.0030 O.3       1 HEX1        0.0000
      6 H21         1.8860   -0.5440   -0.9000 H         1 HEX1        0.0000
      7 H22         1.8890   -0.5460    0.8950 H         1 HEX1        0.0000
      8 C2          1.5270    0.0060   -0.0010 C.3       1 HEX1        0.0000
      9 H31         1.7800    1.9680    0.9020 H         1 HEX1        0.0000
     10 H32         1.7740    1.9720   -0.8970 H         1 HEX1        0.0000
     11 C3          2.1330    1.4190   -0.0000 C.3       1 HEX1        0.0000
     12 H41         4.0210    0.8470   -0.9040 H         1 HEX1        0.0000
     13 H42         4.0250    0.8460    0.8940 H         1 HEX1        0.0000
     14 C4          3.6680    1.3990   -0.0040 C.3       1 HEX1        0.0000
     15 H51         3.9220    3.3550    0.9010 H         1 HEX1        0.0000
     16 H52         3.9110    3.3610   -0.8970 H         1 HEX1        0.0000
     17 C5          4.2780    2.8100   -0.0030 C.3       1 HEX1        0.0000
     18 H61         6.2010    2.2710   -0.8990 H         1 HEX1        0.0000
     19 H62         6.1830    2.2740    0.9060 H         1 HEX1        0.0000
     20 HO6         6.0380    4.5400   -0.8200 H         1 HEX1        0.0000
     21 C6          5.8100    2.8020   -0.0020 C.3       1 HEX1        0.0000
     22 O6          6.2890    4.1400    0.0170 O.3       1 HEX1        0.0000
@<TRIPOS>BOND
     1   12   14 1 
     2    2    4 1 
     3    6    8 1 
     4   18   21 1 
     5   10   11 1 
     6   16   17 1 
     7   20   22 1 
     8   14   17 1 
     9   14   11 1 
    10   14   13 1 
    11    5    3 1 
    12    5    4 1 
    13   17   21 1 
    14   17   15 1 
    15   21   22 1 
    16   21   19 1 
    17    8   11 1 
    18    8    4 1 
    19    8    7 1 
    20   11    9 1 
    21    4    1 1 
