@<TRIPOS>MOLECULE
C:\Users\Praveer\PycharmProjects\pdb_to_mol2_converter\data\pdb\hmbt.pdb
   16    15     0     0     0
SMALL
GASTEIGER

@<TRIPOS>ATOM
      1 C10         1.1130    0.0010    0.0010 C.3       1 HMB1        0.0000
      2 H101        1.4100   -0.5200   -0.9350 H         1 HMB1        0.0000
      3 H102        0.0030   -0.0080    0.0470 H         1 HMB1        0.0000
      4 H103        1.4850   -0.6200    0.8430 H         1 HMB1        0.0000
      5 C11         1.6400    1.4190    0.0060 C.2       1 HMB1        0.0000
      6 H11         1.4350    1.9640   -0.9290 H         1 HMB1        0.0000
      7 C12         2.3710    2.0490    0.9540 C.2       1 HMB1        0.0000
      8 C13         2.7840    1.3950    2.2530 C.3       1 HMB1        0.0000
      9 H131        2.3580    0.3820    2.4080 H         1 HMB1        0.0000
     10 H132        2.4620    2.0110    3.1190 H         1 HMB1        0.0000
     11 H133        3.8890    1.2930    2.3060 H         1 HMB1        0.0000
     12 C14         2.7990    3.4850    0.7390 C.3       1 HMB1        0.0000
     13 H141        2.4640    4.1230    1.5860 H         1 HMB1        0.0000
     14 H142        2.3660    3.9260   -0.1890 H         1 HMB1        0.0000
     15 O14         4.2180    3.5650    0.6240 O.3       1 HMB1        0.0000
     16 HO14        4.5790    3.3460    1.4880 H         1 HMB1        0.0000
@<TRIPOS>BOND
     1    2    1 1 
     2    6    5 1 
     3   14   12 1 
     4    1    5 1 
     5    1    3 1 
     6    1    4 1 
     7    5    7 2 
     8   15   12 1 
     9   15   16 1 
    10   12    7 1 
    11   12   13 1 
    12    7    8 1 
    13    8   11 1 
    14    8    9 1 
    15    8   10 1 
