@<TRIPOS>MOLECULE
C:\Users\Praveer\PycharmProjects\pdb_to_mol2_converter\data\pdb\hpa.pdb
   54    53     0     0     0
SMALL
GASTEIGER

@<TRIPOS>ATOM
      1 O1          0.0960   -0.2950    0.5960 O.co2     1 HPA1        0.0000
      2 O2          2.0780   -1.2650    0.3420 O.co2     1 HPA1        0.0000
      3 C1          1.3340   -0.2490    0.3830 C.2       1 HPA1        0.0000
      4 C2          1.9470    1.1370    0.1650 C.3       1 HPA1        0.0000
      5 H2R         1.5360    1.7990    0.9550 H         1 HPA1        0.0000
      6 H2S         1.5950    1.4970   -0.8210 H         1 HPA1        0.0000
      7 C3          3.4930    1.1520    0.2320 C.3       1 HPA1        0.0000
      8 H3R         3.8970    0.4400   -0.5230 H         1 HPA1        0.0000
      9 H3S         3.8010    0.7820    1.2340 H         1 HPA1        0.0000
     10 C4          4.1030    2.5460    0.0080 C.3       1 HPA1        0.0000
     11 H4R         3.6440    3.2520    0.7370 H         1 HPA1        0.0000
     12 H4S         3.8340    2.8870   -1.0160 H         1 HPA1        0.0000
     13 C5          5.6350    2.5530    0.1860 C.3       1 HPA1        0.0000
     14 H5R         6.0660    1.7990   -0.5100 H         1 HPA1        0.0000
     15 H5S         5.8600    2.1890    1.2130 H         1 HPA1        0.0000
     16 C6          6.2550    3.9050   -0.0810 C.2       1 HPA1        0.0000
     17 H6R         6.2260    4.2150   -1.1370 H         1 HPA1        0.0000
     18 C7          6.8370    4.7240    0.8180 C.2       1 HPA1        0.0000
     19 H7R         7.2500    5.6820    0.4640 H         1 HPA1        0.0000
     20 C8          6.9740    4.4910    2.3050 C.3       1 HPA1        0.0000
     21 H8R         6.2070    3.7640    2.6520 H         1 HPA1        0.0000
     22 H8S         6.7340    5.4340    2.8430 H         1 HPA1        0.0000
     23 C9          8.3660    4.0420    2.6880 C.2       1 HPA1        0.0000
     24 H9R         9.1770    4.7260    2.3890 H         1 HPA1        0.0000
     25 C10         8.6850    2.9110    3.3500 C.2       1 HPA1        0.0000
     26 H10R        9.7460    2.6970    3.5520 H         1 HPA1        0.0000
     27 C11         7.6920    1.8750    3.8260 C.3       1 HPA1        0.0000
     28 H11R        7.2700    1.3630    2.9350 H         1 HPA1        0.0000
     29 H11S        6.8300    2.3860    4.3090 H         1 HPA1        0.0000
     30 C12         8.2600    0.8790    4.8120 C.2       1 HPA1        0.0000
     31 H12R        8.8900    1.3220    5.6000 H         1 HPA1        0.0000
     32 C13         8.0540   -0.4560    4.8340 C.2       1 HPA1        0.0000
     33 H13R        8.5420   -1.0430    5.6280 H         1 HPA1        0.0000
     34 C14         7.2270   -1.2770    3.8700 C.3       1 HPA1        0.0000
     35 H14R        7.9020   -1.9850    3.3420 H         1 HPA1        0.0000
     36 H14S        6.8030   -0.6430    3.0650 H         1 HPA1        0.0000
     37 C15         6.1440   -2.0760    4.5610 C.2       1 HPA1        0.0000
     38 H15R        6.4940   -2.7030    5.3950 H         1 HPA1        0.0000
     39 C16         4.8310   -2.1150    4.2460 C.2       1 HPA1        0.0000
     40 H16R        4.1640   -2.7560    4.8430 H         1 HPA1        0.0000
     41 C17         4.1350   -1.3550    3.1400 C.3       1 HPA1        0.0000
     42 H17R        3.9630   -2.0350    2.2740 H         1 HPA1        0.0000
     43 H17S        4.7820   -0.5490    2.7350 H         1 HPA1        0.0000
     44 C18         2.8010   -0.7560    3.5220 C.2       1 HPA1        0.0000
     45 H18R        1.9300   -1.2540    3.0600 H         1 HPA1        0.0000
     46 C19         2.6010    0.3600    4.2500 C.2       1 HPA1        0.0000
     47 H19R        1.5660    0.7010    4.4140 H         1 HPA1        0.0000
     48 C20         3.6750    1.2230    4.8660 C.3       1 HPA1        0.0000
     49 H20R        4.6840    0.7580    4.7730 H         1 HPA1        0.0000
     50 H20S        3.4800    1.3500    5.9530 H         1 HPA1        0.0000
     51 C21         3.7140    2.5980    4.1830 C.3       1 HPA1        0.0000
     52 H21R        2.7430    3.1280    4.2980 H         1 HPA1        0.0000
     53 H21S        3.9270    2.4910    3.0960 H         1 HPA1        0.0000
     54 H21T        4.5180    3.2220    4.6280 H         1 HPA1        0.0000
@<TRIPOS>BOND
     1   17   16 1 
     2   12   10 1 
     3    6    4 1 
     4    8    7 1 
     5   14   13 1 
     6   16   13 1 
     7   16   18 2 
     8   10   13 1 
     9   10    7 1 
    10   10   11 1 
    11    4    7 1 
    12    4    3 1 
    13    4    5 1 
    14   13   15 1 
    15    7    9 1 
    16    2    3 ar
    17    3    1 ar
    18   19   18 1 
    19   18   20 1 
    20   42   41 1 
    21   20   21 1 
    22   20   23 1 
    23   20   22 1 
    24   24   23 1 
    25   23   25 2 
    26   43   41 1 
    27   28   27 1 
    28   45   44 1 
    29   36   34 1 
    30   53   51 1 
    31   41   44 1 
    32   41   39 1 
    33   35   34 1 
    34   25   26 1 
    35   25   27 1 
    36   44   46 2 
    37   27   29 1 
    38   27   30 1 
    39   34   37 1 
    40   34   32 1 
    41   51   52 1 
    42   51   54 1 
    43   51   48 1 
    44   39   37 2 
    45   39   40 1 
    46   46   47 1 
    47   46   48 1 
    48   37   38 1 
    49   49   48 1 
    50   30   32 2 
    51   30   31 1 
    52   32   33 1 
    53   48   50 1 
