@<TRIPOS>MOLECULE
C:\Users\Praveer\PycharmProjects\pdb_to_mol2_converter\data\pdb\hpap.pdb
   55    54     0     0     0
SMALL
GASTEIGER

@<TRIPOS>ATOM
      1 H1         -0.1450    0.1520   -0.2660 H         1 HPA1        0.0000
      2 O1          0.8030    0.1470   -0.1420 O.3       1 HPA1        0.0000
      3 O2          0.4320    2.3520   -0.3860 O.2       1 HPA1        0.0000
      4 C1          1.2320    1.4510   -0.2070 C.2       1 HPA1        0.0000
      5 C2          2.7380    1.5760   -0.0250 C.3       1 HPA1        0.0000
      6 H2R         3.2300    0.9280   -0.7800 H         1 HPA1        0.0000
      7 H2S         2.9980    1.2050    0.9890 H         1 HPA1        0.0000
      8 C3          3.2340    3.0290   -0.1920 C.3       1 HPA1        0.0000
      9 H3R         2.8000    3.6710    0.6070 H         1 HPA1        0.0000
     10 H3S         2.8870    3.4360   -1.1700 H         1 HPA1        0.0000
     11 C4          4.7660    3.1210   -0.1430 C.3       1 HPA1        0.0000
     12 H4R         5.1880    2.4720   -0.9450 H         1 HPA1        0.0000
     13 H4S         5.1160    2.7210    0.8360 H         1 HPA1        0.0000
     14 C5          5.2810    4.5590   -0.3370 C.3       1 HPA1        0.0000
     15 H5R         4.8270    5.2070    0.4450 H         1 HPA1        0.0000
     16 H5S         4.8990    4.9300   -1.3140 H         1 HPA1        0.0000
     17 C6          6.7870    4.6380   -0.2540 C.2       1 HPA1        0.0000
     18 H6R         7.2030    4.4660    0.7500 H         1 HPA1        0.0000
     19 C7          7.6330    4.8960   -1.2710 C.2       1 HPA1        0.0000
     20 H7R         8.7150    4.9240   -1.0630 H         1 HPA1        0.0000
     21 C8          7.2550    5.1460   -2.7120 C.3       1 HPA1        0.0000
     22 H8R         6.3360    4.5740   -2.9630 H         1 HPA1        0.0000
     23 H8S         8.0470    4.7310   -3.3730 H         1 HPA1        0.0000
     24 C9          7.0770    6.6170   -3.0100 C.2       1 HPA1        0.0000
     25 H9R         7.9490    7.2470   -2.7770 H         1 HPA1        0.0000
     26 C10         5.9740    7.2040   -3.5150 C.2       1 HPA1        0.0000
     27 H10R        5.9800    8.2960   -3.6630 H         1 HPA1        0.0000
     28 C11         4.6920    6.4990   -3.8890 C.3       1 HPA1        0.0000
     29 H11R        4.1270    6.2930   -2.9540 H         1 HPA1        0.0000
     30 H11S        4.9230    5.5080   -4.3360 H         1 HPA1        0.0000
     31 C12         3.8440    7.2740   -4.8700 C.2       1 HPA1        0.0000
     32 H12R        4.4030    7.7540   -5.6890 H         1 HPA1        0.0000
     33 C13         2.5030    7.4150   -4.8450 C.2       1 HPA1        0.0000
     34 H13R        2.0310    8.0190   -5.6360 H         1 HPA1        0.0000
     35 C14         1.5450    6.8280   -3.8330 C.3       1 HPA1        0.0000
     36 H14R        1.2250    7.6360   -3.1390 H         1 HPA1        0.0000
     37 H14S        2.0490    6.0750   -3.1930 H         1 HPA1        0.0000
     38 C15         0.3140    6.2490   -4.4920 C.2       1 HPA1        0.0000
     39 H15R       -0.2060    6.9380   -5.1770 H         1 HPA1        0.0000
     40 C16        -0.2020    5.0120   -4.3320 C.2       1 HPA1        0.0000
     41 H16R       -1.1110    4.7550   -4.8990 H         1 HPA1        0.0000
     42 C17         0.3180    3.8940   -3.4570 C.3       1 HPA1        0.0000
     43 H17R       -0.4690    3.6000   -2.7280 H         1 HPA1        0.0000
     44 H17S        1.1690    4.2250   -2.8240 H         1 HPA1        0.0000
     45 C18         0.7030    2.6860   -4.2800 C.2       1 HPA1        0.0000
     46 H18R       -0.1360    2.0260   -4.5460 H         1 HPA1        0.0000
     47 C19         1.9360    2.3580   -4.7110 C.2       1 HPA1        0.0000
     48 H19R        2.0580    1.4400   -5.3070 H         1 HPA1        0.0000
     49 C20         3.2140    3.1180   -4.4620 C.3       1 HPA1        0.0000
     50 H20R        3.0620    3.9750   -3.7690 H         1 HPA1        0.0000
     51 H20S        3.5890    3.5470   -5.4170 H         1 HPA1        0.0000
     52 C21         4.2910    2.1960   -3.8740 C.3       1 HPA1        0.0000
     53 H21R        4.5370    1.3700   -4.5750 H         1 HPA1        0.0000
     54 H21S        3.9500    1.7540   -2.9140 H         1 HPA1        0.0000
     55 H21T        5.2220    2.7680   -3.6780 H         1 HPA1        0.0000
@<TRIPOS>BOND
     1   32   31 1 
     2   34   33 1 
     3   51   49 1 
     4   48   47 1 
     5   39   38 1 
     6   41   40 1 
     7   31   33 2 
     8   31   28 1 
     9   33   35 1 
    10   47   49 1 
    11   47   45 2 
    12   53   52 1 
    13   46   45 1 
    14   38   40 2 
    15   38   35 1 
    16   49   52 1 
    17   49   50 1 
    18   30   28 1 
    19   40   42 1 
    20   45   42 1 
    21   28   26 1 
    22   28   29 1 
    23   52   55 1 
    24   52   54 1 
    25   35   37 1 
    26   35   36 1 
    27   27   26 1 
    28   26   24 2 
    29   42   44 1 
    30   42   43 1 
    31   23   21 1 
    32   24   25 1 
    33   24   21 1 
    34   22   21 1 
    35   21   19 1 
    36   16   14 1 
    37   19   20 1 
    38   19   17 2 
    39   10    8 1 
    40   12   11 1 
    41    6    5 1 
    42    3    4 2 
    43   14   17 1 
    44   14   11 1 
    45   14   15 1 
    46    1    2 1 
    47   17   18 1 
    48    4    2 1 
    49    4    5 1 
    50    8   11 1 
    51    8    5 1 
    52    8    9 1 
    53   11   13 1 
    54    5    7 1 
