@<TRIPOS>MOLECULE
C:\Users\Praveer\PycharmProjects\pdb_to_mol2_converter\data\pdb\hpat.pdb
   11    10     0     0     0
SMALL
GASTEIGER

@<TRIPOS>ATOM
      1 C5          1.1130   -0.0010   -0.0020 C.3       1 HPA1        0.0000
      2 H51         1.4660   -0.5200    0.9130 H         1 HPA1        0.0000
      3 H52         1.4810   -0.5440   -0.8960 H         1 HPA1        0.0000
      4 H53         0.0030   -0.0070   -0.0070 H         1 HPA1        0.0000
      5 C7          1.6310    1.4530   -0.0110 C.3       1 HPA1        0.0000
      6 H7          2.7410    1.4560   -0.0090 H         1 HPA1        0.0000
      7 O7          1.1640    2.0790   -1.2120 O.3       1 HPA1        0.0000
      8 HO7         0.6820    2.8190   -0.7960 H         1 HPA1        0.0000
      9 C8          1.1620    2.2490    1.2510 C.2       1 HPA1        0.0000
     10 O81         0.4360    3.2630    1.0420 O.co2     1 HPA1        0.0000
     11 O82         1.5640    1.8080    2.3590 O.co2     1 HPA1        0.0000
@<TRIPOS>BOND
     1    7    8 1 
     2    7    5 1 
     3    3    1 1 
     4    5    6 1 
     5    5    1 1 
     6    5    9 1 
     7    4    1 1 
     8    1    2 1 
     9   10    9 ar
    10    9   11 ar
