@<TRIPOS>MOLECULE
C:\Users\Praveer\PycharmProjects\pdb_to_mol2_converter\data\pdb\hpiz.pdb
   26    27     0     0     0
SMALL
GASTEIGER

@<TRIPOS>ATOM
      1 C5          1.3960   -0.0060    0.0020 C.ar      1 HPI1        0.0000
      2 H5          1.9350   -0.9420   -0.0010 H         1 HPI1        0.0000
      3 C6          2.1010    1.2040   -0.0100 C.ar      1 HPI1        0.0000
      4 H6          3.1800    1.2080   -0.0270 H         1 HPI1        0.0000
      5 N1          1.4240    2.4320   -0.0090 N.ar      1 HPI1        0.0000
      6 C7          1.8320    3.7420   -0.0250 C.ar      1 HPI1        0.0000
      7 C8          0.7130    4.5390   -0.0080 C.ar      1 HPI1        0.0000
      8 H8          0.7290    5.6170   -0.0100 H         1 HPI1        0.0000
      9 C9         -0.4230    3.7740    0.0030 C.ar      1 HPI1        0.0000
     10 H9         -1.4440    4.1260    0.0130 H         1 HPI1        0.0000
     11 C2         -0.0010    2.4170    0.0070 C.ar      1 HPI1        0.0000
     12 C3         -0.6960    1.2160    0.0190 C.ar      1 HPI1        0.0000
     13 H3         -1.7750    1.2390    0.0280 H         1 HPI1        0.0000
     14 C4         -0.0050   -0.0040    0.0170 C.ar      1 HPI1        0.0000
     15 H4         -0.5490   -0.9380    0.0260 H         1 HPI1        0.0000
     16 C14         3.2820    4.1590    0.0370 C.3       1 HPI1        0.0000
     17 H141        3.8470    3.5470   -0.7000 H         1 HPI1        0.0000
     18 H142        3.6610    3.8980    1.0470 H         1 HPI1        0.0000
     19 C15         3.5970    5.6430   -0.2640 C.3       1 HPI1        0.0000
     20 H15         2.9820    6.3030    0.3910 H         1 HPI1        0.0000
     21 O15         4.9620    5.8880    0.0270 O.3       1 HPI1        0.0000
     22 H15O        5.0840    5.7080    0.9620 H         1 HPI1        0.0000
     23 C16         3.3740    6.0250   -1.7310 C.3       1 HPI1        0.0000
     24 H161        2.3170    5.8670   -2.0270 H         1 HPI1        0.0000
     25 H162        4.0190    5.4040   -2.3900 H         1 HPI1        0.0000
     26 H163        3.6340    7.0920   -1.8960 H         1 HPI1        0.0000
@<TRIPOS>BOND
     1   25   23 1 
     2   24   23 1 
     3   26   23 1 
     4   23   19 1 
     5   17   16 1 
     6   19   21 1 
     7   19   16 1 
     8   19   20 1 
     9    4    3 1 
    10    6    5 ar
    11    6    7 ar
    12    6   16 1 
    13    3    5 ar
    14    3    1 ar
    15    8    7 1 
    16    5   11 ar
    17    7    9 ar
    18    2    1 1 
    19    1   14 ar
    20    9   11 ar
    21    9   10 1 
    22   11   12 ar
    23   14   12 ar
    24   14   15 1 
    25   12   13 1 
    26   21   22 1 
    27   16   18 1 
