@<TRIPOS>MOLECULE
C:\Users\Praveer\PycharmProjects\pdb_to_mol2_converter\data\pdb\hplipa.pdb
  269   270     0     0     0
SMALL
GASTEIGER

@<TRIPOS>ATOM
      1 HB6S       -7.9700    2.3660    0.7410 H         1 HPL1        0.0000
      2 OB6        -6.8640    1.1190    1.9700 O.3       1 HPL1        0.0000
      3 HOB6       -6.0720    0.5700    1.9280 H         1 HPL1        0.0000
      4 CB6        -7.0740    1.7060    0.6850 C.3       1 HPL1        0.0000
      5 HB6R       -7.2820    0.9000   -0.0550 H         1 HPL1        0.0000
      6 CB5        -5.8650    2.5070    0.2600 C.3       1 HPL1        0.0000
      7 OB5        -4.7320    1.6230    0.2160 O.3       1 HPL1        0.0000
      8 HB5        -5.6990    3.3050    1.0260 H         1 HPL1        0.0000
      9 CB1        -3.5190    2.3590    0.0690 C.3       1 HPL1        0.0000
     10 HB1        -3.3890    3.0800    0.9080 H         1 HPL1        0.0000
     11 OA6        -2.3970    1.5290   -0.0300 O.3       1 HPL1        0.0000
     12 CA6        -2.0790    0.8410    1.1790 C.3       1 HPL1        0.0000
     13 HA6R       -2.5230   -0.1780    1.1580 H         1 HPL1        0.0000
     14 HA6S       -2.4820    1.3720    2.0680 H         1 HPL1        0.0000
     15 CB4        -5.9950    3.1530   -1.1080 C.3       1 HPL1        0.0000
     16 HB4        -6.1200    2.3420   -1.8670 H         1 HPL1        0.0000
     17 OB4        -7.1440    3.9870   -1.1660 O.3       1 HPL1        0.0000
     18 HOB4       -7.1350    4.4190   -2.0310 H         1 HPL1        0.0000
     19 CB3        -4.7370    3.9360   -1.4350 C.3       1 HPL1        0.0000
     20 OB3        -4.8090    4.4570   -2.7590 O.3       1 HPL1        0.0000
     21 HOB3       -3.9260    4.4050   -3.1760 H         1 HPL1        0.0000
     22 HB3        -4.6650    4.8030   -0.7340 H         1 HPL1        0.0000
     23 CB2        -3.4970    3.0840   -1.2550 C.3       1 HPL1        0.0000
     24 HB2        -3.5050    2.2980   -2.0560 H         1 HPL1        0.0000
     25 NB2        -2.2490    3.8240   -1.3530 N.am      1 HPL1        0.0000
     26 HNB2       -1.7280    3.8980   -0.5110 H         1 HPL1        0.0000
     27 CA4         0.1040    2.1210    1.2210 C.3       1 HPL1        0.0000
     28 HA4        -0.2340    2.6260    0.2880 H         1 HPL1        0.0000
     29 OA4        -0.3220    2.9030    2.3310 O.3       1 HPL1        0.0000
     30 HOA4       -0.1030    3.8270    2.1290 H         1 HPL1        0.0000
     31 CA5        -0.5680    0.7540    1.2620 C.3       1 HPL1        0.0000
     32 HA5        -0.2970    0.2270    2.2080 H         1 HPL1        0.0000
     33 OA5        -0.1360   -0.0270    0.1370 O.3       1 HPL1        0.0000
     34 CA1         1.2770   -0.2250    0.0770 C.3       1 HPL1        0.0000
     35 HA1         1.4700   -0.7950   -0.8670 H         1 HPL1        0.0000
     36 NC          6.5560   -0.9950    1.9250 N.4       1 HPL1        0.0000
     37 HNC1        7.3190   -0.3050    1.7890 H         1 HPL1        0.0000
     38 HNC2        6.6430   -1.4680    2.8490 H         1 HPL1        0.0000
     39 HNC3        5.6230   -0.5200    1.8800 H         1 HPL1        0.0000
     40 CC2         6.5080   -2.0220    0.8360 C.3       1 HPL1        0.0000
     41 HC21        7.3330   -2.7340    0.9740 H         1 HPL1        0.0000
     42 HC22        6.6850   -1.5080   -0.1260 H         1 HPL1        0.0000
     43 CC1         5.1290   -2.7130    0.8780 C.3       1 HPL1        0.0000
     44 HC11        5.0390   -3.3360    1.8140 H         1 HPL1        0.0000
     45 HC12        5.0580   -3.4150    0.0140 H         1 HPL1        0.0000
     46 OC1         4.0920   -1.7250    0.7740 O.3       1 HPL1        0.0000
     47 PA          2.5630   -2.3260    1.0960 P.3       1 HPL1        0.0000
     48 OA1         1.7110   -0.9300    1.2230 O.3       1 HPL1        0.0000
     49 OPA3        2.1340   -3.1450   -0.1080 O.2       1 HPL1        0.0000
     50 OPA4        2.6440   -2.9940    2.4580 O.3       1 HPL1        0.0000
     51 CA3         1.6190    1.9810    1.1560 C.3       1 HPL1        0.0000
     52 HA3         1.9160    1.4220    2.0780 H         1 HPL1        0.0000
     53 OA3         2.4750    3.1260    1.1100 O.3       1 HPL1        0.0000
     54 C31         2.0780    4.3700    0.9620 C.2       1 HPL1        0.0000
     55 O31         0.9280    4.7710    0.9120 O.2       1 HPL1        0.0000
     56 C32         3.2960    5.2400    1.2480 C.3       1 HPL1        0.0000
     57 H32R        4.0640    5.0090    0.4830 H         1 HPL1        0.0000
     58 H32S        3.6960    4.9660    2.2460 H         1 HPL1        0.0000
     59 CA2         1.9700    1.1160   -0.0370 C.3       1 HPL1        0.0000
     60 HA2         1.5340    1.6370   -0.9340 H         1 HPL1        0.0000
     61 NA2         3.3840    0.9010   -0.2890 N.am      1 HPL1        0.0000
     62 HNA2        3.6760   -0.0090   -0.0050 H         1 HPL1        0.0000
     63 C51        -1.6470    4.1910   -2.4830 C.2       1 HPL1        0.0000
     64 O51        -2.2170    4.1610   -3.5660 O.2       1 HPL1        0.0000
     65 C52        -0.2080    4.6110   -2.3130 C.3       1 HPL1        0.0000
     66 H52R        0.3670    3.7240   -1.9680 H         1 HPL1        0.0000
     67 H52S       -0.1450    5.3940   -1.5300 H         1 HPL1        0.0000
     68 C53         0.4200    5.1340   -3.6090 C.3       1 HPL1        0.0000
     69 H53R        0.2890    4.3660   -4.4120 H         1 HPL1        0.0000
     70 O53         1.7920    5.3840   -3.2720 O.3       1 HPL1        0.0000
     71 C61         2.6960    4.8650   -4.0870 C.2       1 HPL1        0.0000
     72 O61         2.4690    4.2060   -5.0900 O.2       1 HPL1        0.0000
     73 C62         4.0930    5.2310   -3.5980 C.3       1 HPL1        0.0000
     74 H62R        4.8260    4.7210   -4.2520 H         1 HPL1        0.0000
     75 H62S        4.1990    4.8360   -2.5690 H         1 HPL1        0.0000
     76 C63         4.3520    6.7500   -3.5670 C.3       1 HPL1        0.0000
     77 H63R        5.2960    6.9320   -3.0010 H         1 HPL1        0.0000
     78 H63S        3.5380    7.2700   -3.0190 H         1 HPL1        0.0000
     79 C64         4.5060    7.3790   -4.9530 C.3       1 HPL1        0.0000
     80 H64R        3.5850    7.2220   -5.5540 H         1 HPL1        0.0000
     81 H64S        5.3420    6.8840   -5.4950 H         1 HPL1        0.0000
     82 C65         4.7870    8.8810   -4.8460 C.3       1 HPL1        0.0000
     83 H65R        5.6820    9.0310   -4.2000 H         1 HPL1        0.0000
     84 H65S        3.9270    9.3900   -4.3560 H         1 HPL1        0.0000
     85 C66         5.0530    9.5290   -6.2070 C.3       1 HPL1        0.0000
     86 H66R        4.1610    9.4180   -6.8630 H         1 HPL1        0.0000
     87 H66S        5.8960    8.9930   -6.6960 H         1 HPL1        0.0000
     88 C67         5.4080   11.0160   -6.0800 C.3       1 HPL1        0.0000
     89 H67R        6.0930   11.1700   -5.2170 H         1 HPL1        0.0000
     90 H67S        4.4740   11.5830   -5.8660 H         1 HPL1        0.0000
     91 C68         6.0800   11.5670   -7.3440 C.3       1 HPL1        0.0000
     92 H68R        5.8650   10.8950   -8.2050 H         1 HPL1        0.0000
     93 H68S        7.1820   11.5750   -7.1930 H         1 HPL1        0.0000
     94 C69         5.6120   12.9810   -7.7000 C.3       1 HPL1        0.0000
     95 H69R        5.7800   13.6490   -6.8250 H         1 HPL1        0.0000
     96 H69S        4.5190   12.9660   -7.9150 H         1 HPL1        0.0000
     97 C610        6.3600   13.5400   -8.9150 C.3       1 HPL1        0.0000
     98 H610        6.0680   12.9660   -9.8220 H         1 HPL1        0.0000
     99 H610        7.4550   13.4020   -8.7650 H         1 HPL1        0.0000
    100 C611        6.0860   15.0310   -9.1340 C.3       1 HPL1        0.0000
    101 H611        6.4920   15.5950   -8.2630 H         1 HPL1        0.0000
    102 H611        4.9880   15.2120   -9.1720 H         1 HPL1        0.0000
    103 C612        6.7240   15.5640  -10.4220 C.3       1 HPL1        0.0000
    104 H612        6.1330   15.2000  -11.2920 H         1 HPL1        0.0000
    105 H612        7.7570   15.1610  -10.5220 H         1 HPL1        0.0000
    106 C613        6.7960   17.0950  -10.4420 C.3       1 HPL1        0.0000
    107 H613        7.5790   17.4230   -9.7220 H         1 HPL1        0.0000
    108 H613        5.8240   17.5180  -10.1000 H         1 HPL1        0.0000
    109 C614        7.1100   17.6560  -11.8340 C.3       1 HPL1        0.0000
    110 H614        6.2130   17.5220  -12.4810 H         1 HPL1        0.0000
    111 H614        7.9460   17.0800  -12.2910 H         1 HPL1        0.0000
    112 C615        7.4980   19.1390  -11.7910 C.3       1 HPL1        0.0000
    113 H615        8.5130   19.2300  -11.3430 H         1 HPL1        0.0000
    114 H615        6.7890   19.6890  -11.1330 H         1 HPL1        0.0000
    115 C616        7.4870   19.7930  -13.1780 C.3       1 HPL1        0.0000
    116 H616        6.4360   19.8340  -13.5460 H         1 HPL1        0.0000
    117 H616        8.0690   19.1650  -13.8900 H         1 HPL1        0.0000
    118 C617        8.0770   21.2080  -13.1680 C.3       1 HPL1        0.0000
    119 H617        9.1600   21.1390  -12.9110 H         1 HPL1        0.0000
    120 H617        7.5820   21.8010  -12.3650 H         1 HPL1        0.0000
    121 C618        7.9160   21.9360  -14.5030 C.3       1 HPL1        0.0000
    122 H618        6.8390   22.0840  -14.7340 H         1 HPL1        0.0000
    123 H618        8.3740   21.3470  -15.3270 H         1 HPL1        0.0000
    124 H618        8.4070   22.9330  -14.4670 H         1 HPL1        0.0000
    125 C54        -0.2120    6.4640   -4.0800 C.3       1 HPL1        0.0000
    126 H54R       -0.2390    7.1750   -3.2260 H         1 HPL1        0.0000
    127 H54S       -1.2590    6.2730   -4.4040 H         1 HPL1        0.0000
    128 C55         0.5480    7.1030   -5.2490 C.3       1 HPL1        0.0000
    129 H55R        0.7000    6.3360   -6.0430 H         1 HPL1        0.0000
    130 H55S        1.5500    7.4230   -4.8840 H         1 HPL1        0.0000
    131 C56        -0.1540    8.3200   -5.8580 C.3       1 HPL1        0.0000
    132 H56R       -0.2140    9.1240   -5.0970 H         1 HPL1        0.0000
    133 H56S       -1.1970    8.0600   -6.1460 H         1 HPL1        0.0000
    134 C57         0.6040    8.8260   -7.0900 C.3       1 HPL1        0.0000
    135 H57R        0.2110    8.2960   -7.9870 H         1 HPL1        0.0000
    136 H57S        1.6800    8.5540   -6.9990 H         1 HPL1        0.0000
    137 C58         0.5210   10.3410   -7.3020 C.3       1 HPL1        0.0000
    138 H58R        1.1340   10.8510   -6.5240 H         1 HPL1        0.0000
    139 H58S       -0.5310   10.6830   -7.1900 H         1 HPL1        0.0000
    140 C59         1.0320   10.7220   -8.6970 C.3       1 HPL1        0.0000
    141 H59R        0.3520   10.2730   -9.4580 H         1 HPL1        0.0000
    142 H59S        2.0440   10.2780   -8.8450 H         1 HPL1        0.0000
    143 C510        1.1170   12.2330   -8.9430 C.3       1 HPL1        0.0000
    144 H510        1.7690   12.7050   -8.1740 H         1 HPL1        0.0000
    145 H510        0.1010   12.6800   -8.8550 H         1 HPL1        0.0000
    146 C511        1.6880   12.5260  -10.3360 C.3       1 HPL1        0.0000
    147 H511        1.1230   11.9400  -11.0960 H         1 HPL1        0.0000
    148 H511        2.7460   12.1790  -10.3690 H         1 HPL1        0.0000
    149 C512        1.6330   14.0070  -10.7260 C.3       1 HPL1        0.0000
    150 H512        2.0550   14.6260   -9.9030 H         1 HPL1        0.0000
    151 H512        0.5700   14.3060  -10.8700 H         1 HPL1        0.0000
    152 C513        2.4270   14.2730  -12.0120 C.3       1 HPL1        0.0000
    153 H513        2.1110   13.5480  -12.7970 H         1 HPL1        0.0000
    154 H513        3.5070   14.0980  -11.8030 H         1 HPL1        0.0000
    155 C514        2.2380   15.6960  -12.5480 C.3       1 HPL1        0.0000
    156 H514        2.4250   16.4260  -11.7280 H         1 HPL1        0.0000
    157 H514        1.1830   15.8220  -12.8800 H         1 HPL1        0.0000
    158 C515        3.1830   16.0060  -13.7160 C.3       1 HPL1        0.0000
    159 H515        3.0240   15.2590  -14.5250 H         1 HPL1        0.0000
    160 H515        4.2340   15.9060  -13.3650 H         1 HPL1        0.0000
    161 C516        2.9740   17.4150  -14.2830 C.3       1 HPL1        0.0000
    162 H516        3.0960   18.1590  -13.4650 H         1 HPL1        0.0000
    163 H516        1.9320   17.5020  -14.6670 H         1 HPL1        0.0000
    164 C517        3.9550   17.7500  -15.4130 C.3       1 HPL1        0.0000
    165 H517        3.8370   16.9980  -16.2260 H         1 HPL1        0.0000
    166 H517        4.9950   17.6600  -15.0230 H         1 HPL1        0.0000
    167 C518        3.7530   19.1530  -15.9900 C.3       1 HPL1        0.0000
    168 H518        3.8900   19.9220  -15.1990 H         1 HPL1        0.0000
    169 H518        2.7270   19.2570  -16.4060 H         1 HPL1        0.0000
    170 H518        4.4830   19.3510  -16.8040 H         1 HPL1        0.0000
    171 C33         2.9790    6.7440    1.2280 C.3       1 HPL1        0.0000
    172 H33R        3.9120    7.2960    1.4980 H         1 HPL1        0.0000
    173 O33         2.0130    7.0390    2.2190 O.3       1 HPL1        0.0000
    174 HO33        1.1410    6.6760    2.0290 H         1 HPL1        0.0000
    175 C34         2.5130    7.2650   -0.1440 C.3       1 HPL1        0.0000
    176 H34R        1.5390    6.8060   -0.4220 H         1 HPL1        0.0000
    177 H34S        3.2640    6.9450   -0.8980 H         1 HPL1        0.0000
    178 C35         2.3640    8.7930   -0.2150 C.3       1 HPL1        0.0000
    179 H35R        3.2900    9.2900    0.1490 H         1 HPL1        0.0000
    180 H35S        1.5390    9.0950    0.4700 H         1 HPL1        0.0000
    181 C36         2.0460    9.2800   -1.6360 C.3       1 HPL1        0.0000
    182 H36R        1.6750    8.4190   -2.2380 H         1 HPL1        0.0000
    183 H36S        2.9750    9.6510   -2.1230 H         1 HPL1        0.0000
    184 C37         0.9670   10.3690   -1.6560 C.3       1 HPL1        0.0000
    185 H37R        1.3100   11.2400   -1.0570 H         1 HPL1        0.0000
    186 H37S        0.0590    9.9590   -1.1570 H         1 HPL1        0.0000
    187 C38         0.5830   10.8090   -3.0780 C.3       1 HPL1        0.0000
    188 H38R       -0.5140   10.6560   -3.2000 H         1 HPL1        0.0000
    189 H38S        1.0930   10.1540   -3.8190 H         1 HPL1        0.0000
    190 C39         0.9140   12.2750   -3.3980 C.3       1 HPL1        0.0000
    191 H39R        1.9180   12.3180   -3.8780 H         1 HPL1        0.0000
    192 H39S        0.9670   12.8630   -2.4550 H         1 HPL1        0.0000
    193 C310       -0.1310   12.9340   -4.3160 C.3       1 HPL1        0.0000
    194 H310       -1.1370   12.8820   -3.8420 H         1 HPL1        0.0000
    195 H310       -0.1740   12.3520   -5.2620 H         1 HPL1        0.0000
    196 C311        0.2040   14.4020   -4.6340 C.3       1 HPL1        0.0000
    197 H311        1.3120   14.4760   -4.7300 H         1 HPL1        0.0000
    198 H311       -0.0880   15.0540   -3.7820 H         1 HPL1        0.0000
    199 C312       -0.4060   14.9090   -5.9560 C.3       1 HPL1        0.0000
    200 H312       -0.7250   14.0420   -6.5750 H         1 HPL1        0.0000
    201 H312        0.4060   15.4150   -6.5240 H         1 HPL1        0.0000
    202 C313       -1.5900   15.8850   -5.8010 C.3       1 HPL1        0.0000
    203 H313       -1.8350   16.0220   -4.7250 H         1 HPL1        0.0000
    204 H313       -2.4870   15.4250   -6.2730 H         1 HPL1        0.0000
    205 C314       -1.3520   17.2700   -6.4390 C.3       1 HPL1        0.0000
    206 H314       -0.3590   17.3000   -6.9380 H         1 HPL1        0.0000
    207 H314       -1.3360   18.0420   -5.6380 H         1 HPL1        0.0000
    208 C315       -2.4150   17.6490   -7.4830 C.3       1 HPL1        0.0000
    209 H315       -3.4220   17.5940   -7.0090 H         1 HPL1        0.0000
    210 H315       -2.3900   16.8970   -8.3040 H         1 HPL1        0.0000
    211 C316       -2.2190   19.0470   -8.0790 C.3       1 HPL1        0.0000
    212 H316       -1.2200   19.1330   -8.5590 H         1 HPL1        0.0000
    213 H316       -2.2960   19.8240   -7.2880 H         1 HPL1        0.0000
    214 H316       -2.9950   19.2550   -8.8480 H         1 HPL1        0.0000
    215 C11         4.0840    1.5900   -1.2050 C.2       1 HPL1        0.0000
    216 O11         3.8900    2.7700   -1.4460 O.2       1 HPL1        0.0000
    217 C12         5.0600    0.7590   -2.0060 C.3       1 HPL1        0.0000
    218 H12R        4.4460    0.0610   -2.6180 H         1 HPL1        0.0000
    219 H12S        5.6850    0.1580   -1.3280 H         1 HPL1        0.0000
    220 C13         5.9550    1.5880   -2.9430 C.3       1 HPL1        0.0000
    221 H13R        5.3480    2.3400   -3.4950 H         1 HPL1        0.0000
    222 O13         6.5070    0.6750   -3.8740 O.3       1 HPL1        0.0000
    223 HO13        6.8730    1.0850   -4.6630 H         1 HPL1        0.0000
    224 C14         7.1200    2.2760   -2.2030 C.3       1 HPL1        0.0000
    225 H14R        7.6360    1.4940   -1.6030 H         1 HPL1        0.0000
    226 H14S        6.7030    3.0300   -1.4990 H         1 HPL1        0.0000
    227 C15         8.1840    2.9500   -3.0970 C.3       1 HPL1        0.0000
    228 H15R        8.6410    2.2040   -3.7840 H         1 HPL1        0.0000
    229 H15S        9.0010    3.3150   -2.4330 H         1 HPL1        0.0000
    230 C16         7.6590    4.1420   -3.9090 C.3       1 HPL1        0.0000
    231 H16R        7.0710    4.7990   -3.2270 H         1 HPL1        0.0000
    232 H16S        6.9760    3.7820   -4.7110 H         1 HPL1        0.0000
    233 C17         8.7870    4.9860   -4.5290 C.3       1 HPL1        0.0000
    234 H17R        9.4190    4.3490   -5.1870 H         1 HPL1        0.0000
    235 H17S        9.4310    5.3680   -3.7040 H         1 HPL1        0.0000
    236 C18         8.2460    6.1810   -5.3290 C.3       1 HPL1        0.0000
    237 H18R        7.4850    6.6970   -4.7010 H         1 HPL1        0.0000
    238 H18S        7.7300    5.8130   -6.2440 H         1 HPL1        0.0000
    239 C19         9.3090    7.2210   -5.7250 C.3       1 HPL1        0.0000
    240 H19R       10.0520    6.7680   -6.4170 H         1 HPL1        0.0000
    241 H19S        9.8490    7.5450   -4.8070 H         1 HPL1        0.0000
    242 C110        8.6660    8.4550   -6.3770 C.3       1 HPL1        0.0000
    243 H110        7.8820    8.8190   -5.6730 H         1 HPL1        0.0000
    244 H110        8.1560    8.1640   -7.3220 H         1 HPL1        0.0000
    245 C111        9.6230    9.6310   -6.6410 C.3       1 HPL1        0.0000
    246 H111       10.3050    9.7790   -5.7770 H         1 HPL1        0.0000
    247 H111        8.9950   10.5480   -6.7190 H         1 HPL1        0.0000
    248 C112       10.4250    9.5260   -7.9480 C.3       1 HPL1        0.0000
    249 H112        9.7830    9.0690   -8.7340 H         1 HPL1        0.0000
    250 H112       11.3010    8.8590   -7.7950 H         1 HPL1        0.0000
    251 C113       10.8850   10.9040   -8.4520 C.3       1 HPL1        0.0000
    252 H113       11.5160   11.3920   -7.6770 H         1 HPL1        0.0000
    253 H113        9.9850   11.5440   -8.5990 H         1 HPL1        0.0000
    254 C114       11.6620   10.8520   -9.7770 C.3       1 HPL1        0.0000
    255 H114       11.0720   10.2740  -10.5230 H         1 HPL1        0.0000
    256 H114       12.6240   10.3180   -9.6170 H         1 HPL1        0.0000
    257 C115       11.9400   12.2530  -10.3460 C.3       1 HPL1        0.0000
    258 H115       12.5190   12.8420   -9.6000 H         1 HPL1        0.0000
    259 H115       10.9700   12.7750  -10.5100 H         1 HPL1        0.0000
    260 C116       12.7160   12.2260  -11.6720 C.3       1 HPL1        0.0000
    261 H116       12.1440   11.6320  -12.4200 H         1 HPL1        0.0000
    262 H116       13.6930   11.7180  -11.5140 H         1 HPL1        0.0000
    263 C117       12.9650   13.6330  -12.2350 C.3       1 HPL1        0.0000
    264 H117       13.5220   14.2260  -11.4730 H         1 HPL1        0.0000
    265 H117       11.9830   14.1330  -12.3930 H         1 HPL1        0.0000
    266 C118       13.7510   13.6460  -13.5490 C.3       1 HPL1        0.0000
    267 H118       13.2030   13.0850  -14.3370 H         1 HPL1        0.0000
    268 H118       14.7480   13.1750  -13.4120 H         1 HPL1        0.0000
    269 H118       13.9020   14.6890  -13.9020 H         1 HPL1        0.0000
@<TRIPOS>BOND
     1  170  167 1 
     2  169  167 1 
     3  165  164 1 
     4  167  164 1 
     5  167  168 1 
     6  164  166 1 
     7  164  161 1 
     8  123  121 1 
     9  122  121 1 
    10  163  161 1 
    11  159  158 1 
    12  121  124 1 
    13  121  118 1 
    14  267  266 1 
    15  161  158 1 
    16  161  162 1 
    17  269  266 1 
    18  117  115 1 
    19  158  160 1 
    20  158  155 1 
    21  266  268 1 
    22  266  263 1 
    23  116  115 1 
    24  115  118 1 
    25  115  112 1 
    26  118  119 1 
    27  118  120 1 
    28  157  155 1 
    29  153  152 1 
    30  155  152 1 
    31  155  156 1 
    32  110  109 1 
    33  261  260 1 
    34  265  263 1 
    35  111  109 1 
    36  263  260 1 
    37  263  264 1 
    38  152  154 1 
    39  152  149 1 
    40  109  112 1 
    41  109  106 1 
    42  112  113 1 
    43  112  114 1 
    44  260  262 1 
    45  260  257 1 
    46  104  103 1 
    47  147  146 1 
    48  151  149 1 
    49  149  146 1 
    50  149  150 1 
    51  255  254 1 
    52  105  103 1 
    53  259  257 1 
    54  106  103 1 
    55  106  108 1 
    56  106  107 1 
    57  103  100 1 
    58  148  146 1 
    59  257  254 1 
    60  257  258 1 
    61  146  143 1 
    62   98   97 1 
    63  254  256 1 
    64  254  251 1 
    65  141  140 1 
    66  102  100 1 
    67  100   97 1 
    68  100  101 1 
    69  143  145 1 
    70  143  140 1 
    71  143  144 1 
    72   97   99 1 
    73   97   94 1 
    74  214  211 1 
    75  142  140 1 
    76  249  248 1 
    77  140  137 1 
    78  253  251 1 
    79  212  211 1 
    80  251  248 1 
    81  251  252 1 
    82  210  208 1 
    83   92   91 1 
    84  211  208 1 
    85  211  213 1 
    86  135  134 1 
    87  248  250 1 
    88  248  245 1 
    89   96   94 1 
    90   94   91 1 
    91   94   95 1 
    92  208  209 1 
    93  208  205 1 
    94   91   93 1 
    95   91   88 1 
    96  244  242 1 
    97  137  139 1 
    98  137  134 1 
    99  137  138 1 
   100  134  136 1 
   101  134  131 1 
   102  206  205 1 
   103   86   85 1 
   104  247  245 1 
   105   87   85 1 
   106  245  242 1 
   107  245  246 1 
   108  200  199 1 
   109  201  199 1 
   110  205  202 1 
   111  205  207 1 
   112  240  239 1 
   113  242  239 1 
   114  242  243 1 
   115  204  202 1 
   116  238  236 1 
   117   85   88 1 
   118   85   82 1 
   119  133  131 1 
   120   88   90 1 
   121   88   89 1 
   122  129  128 1 
   123  199  202 1 
   124  199  196 1 
   125  131  128 1 
   126  131  132 1 
   127  202  203 1 
   128  239  236 1 
   129  239  241 1 
   130   80   79 1 
   131   81   79 1 
   132  236  237 1 
   133  236  233 1 
   134  195  193 1 
   135  128  130 1 
   136  128  125 1 
   137  234  233 1 
   138   72   71 2 
   139   79   82 1 
   140   79   76 1 
   141   82   84 1 
   142   82   83 1 
   143  197  196 1 
   144  232  230 1 
   145  223  222 1 
   146  196  193 1 
   147  196  198 1 
   148  233  230 1 
   149  233  235 1 
   150   69   68 1 
   151  127  125 1 
   152  193  194 1 
   153  193  190 1 
   154   74   73 1 
   155   71   73 1 
   156   71   70 1 
   157  125   68 1 
   158  125  126 1 
   159  230  231 1 
   160  230  227 1 
   161  191  190 1 
   162  222  220 1 
   163  189  187 1 
   164  228  227 1 
   165   68   70 1 
   166   68   65 1 
   167   73   76 1 
   168   73   75 1 
   169   76   78 1 
   170   76   77 1 
   171   64   63 2 
   172  221  220 1 
   173  190  187 1 
   174  190  192 1 
   175  188  187 1 
   176   21   20 1 
   177  227  229 1 
   178  227  224 1 
   179  187  184 1 
   180  220  224 1 
   181  220  217 1 
   182   20   19 1 
   183  218  217 1 
   184   63   65 1 
   185   63   25 am
   186   65   66 1 
   187   65   67 1 
   188  182  181 1 
   189  224  225 1 
   190  224  226 1 
   191  183  181 1 
   192   24   23 1 
   193   18   17 1 
   194  217  219 1 
   195  217  215 1 
   196   16   15 1 
   197  184  181 1 
   198  184  186 1 
   199  184  185 1 
   200  181  178 1 
   201  216  215 2 
   202   19   23 1 
   203   19   15 1 
   204   19   22 1 
   205   25   23 1 
   206   25   26 1 
   207   23    9 1 
   208  215   61 am
   209   17   15 1 
   210   15    6 1 
   211   60   59 1 
   212  177  175 1 
   213   35   34 1 
   214  176  175 1 
   215   61   59 1 
   216   61   62 1 
   217  178  175 1 
   218  178  179 1 
   219  178  180 1 
   220  175  171 1 
   221   42   40 1 
   222   49   47 2 
   223    5    4 1 
   224   59   34 1 
   225   59   51 1 
   226   11    9 1 
   227   11   12 1 
   228   45   43 1 
   229    9    7 1 
   230    9   10 1 
   231   34   33 1 
   232   34   48 1 
   233   33   31 1 
   234    7    6 1 
   235    6    4 1 
   236    6    8 1 
   237   28   27 1 
   238   57   56 1 
   239    4    1 1 
   240    4    2 1 
   241   46   43 1 
   242   46   47 1 
   243   40   43 1 
   244   40   41 1 
   245   40   36 1 
   246   43   44 1 
   247   55   54 2 
   248   54   53 1 
   249   54   56 1 
   250   47   48 1 
   251   47   50 1 
   252   53   51 1 
   253   51   27 1 
   254   51   52 1 
   255   13   12 1 
   256   12   31 1 
   257   12   14 1 
   258   27   31 1 
   259   27   29 1 
   260  171   56 1 
   261  171  172 1 
   262  171  173 1 
   263   56   58 1 
   264   31   32 1 
   265   37   36 1 
   266   39   36 1 
   267   36   38 1 
   268    3    2 1 
   269  174  173 1 
   270   30   29 1 
