@<TRIPOS>MOLECULE
C:\Users\Praveer\PycharmProjects\pdb_to_mol2_converter\data\pdb\hplipb.pdb
  351   352     0     0     0
SMALL
GASTEIGER

@<TRIPOS>ATOM
      1 HB6S       -7.9810    2.2620    0.8300 H         1 HPL1        0.0000
      2 OB6        -6.8090    0.7760    1.7250 O.3       1 HPL1        0.0000
      3 HOB6       -5.9650    0.3570    1.5220 H         1 HPL1        0.0000
      4 CB6        -7.0730    1.6500    0.6210 C.3       1 HPL1        0.0000
      5 HB6R       -7.2910    1.0460   -0.2900 H         1 HPL1        0.0000
      6 CB5        -5.8820    2.5460    0.3440 C.3       1 HPL1        0.0000
      7 OB5        -4.7150    1.7120    0.2200 O.3       1 HPL1        0.0000
      8 HB5        -5.7650    3.2410    1.2100 H         1 HPL1        0.0000
      9 CB1        -3.5250    2.4870    0.0740 C.3       1 HPL1        0.0000
     10 HB1        -3.3810    3.1500    0.9570 H         1 HPL1        0.0000
     11 OA6        -2.4010    1.6710   -0.0980 O.3       1 HPL1        0.0000
     12 CA6        -2.1230    0.8490    1.0340 C.3       1 HPL1        0.0000
     13 HA6R       -2.5680   -0.1600    0.8840 H         1 HPL1        0.0000
     14 HA6S       -2.5500    1.2890    1.9620 H         1 HPL1        0.0000
     15 CB4        -6.0160    3.3450   -0.9370 C.3       1 HPL1        0.0000
     16 HB4        -6.1120    2.6120   -1.7760 H         1 HPL1        0.0000
     17 OB4        -7.1640    4.1700   -0.7850 O.3       1 HPL1        0.0000
     18 PB         -8.3990    4.1910   -1.8880 P.3       1 HPL1        0.0000
     19 OPB4       -8.4210    5.6350   -2.3860 O.3       1 HPL1        0.0000
     20 OPB3       -9.6260    3.7850   -1.0900 O.3       1 HPL1        0.0000
     21 OPB2       -8.0290    3.2030   -2.9840 O.2       1 HPL1        0.0000
     22 CB3        -4.7900    4.1890   -1.1850 C.3       1 HPL1        0.0000
     23 OB3        -4.8810    4.7700   -2.4770 O.3       1 HPL1        0.0000
     24 HB3        -4.6760    4.9500   -0.3730 H         1 HPL1        0.0000
     25 C71        -5.4440    5.9830   -2.5470 C.2       1 HPL1        0.0000
     26 O71        -5.1970    6.8790   -1.7500 O.2       1 HPL1        0.0000
     27 C72        -5.6800    6.2040   -4.0310 C.3       1 HPL1        0.0000
     28 H72R       -6.6890    5.7820   -4.2450 H         1 HPL1        0.0000
     29 H72S       -4.9380    5.6320   -4.6240 H         1 HPL1        0.0000
     30 CB2        -3.5650    3.3140   -1.1890 C.3       1 HPL1        0.0000
     31 HB2        -3.6790    2.5930   -2.0410 H         1 HPL1        0.0000
     32 NB2        -2.3280    4.0710   -1.3600 N.am      1 HPL1        0.0000
     33 HNB2       -1.9730    4.5030   -0.5420 H         1 HPL1        0.0000
     34 CA4         0.0440    2.1240    1.2040 C.3       1 HPL1        0.0000
     35 HA4        -0.2510    2.6800    0.2820 H         1 HPL1        0.0000
     36 OA4        -0.4200    2.8610    2.3330 O.3       1 HPL1        0.0000
     37 HOA4       -0.1980    3.7880    2.1570 H         1 HPL1        0.0000
     38 CA5        -0.6190    0.7540    1.1500 C.3       1 HPL1        0.0000
     39 HA5        -0.3670    0.1750    2.0690 H         1 HPL1        0.0000
     40 OA5        -0.1590    0.0180    0.0060 O.3       1 HPL1        0.0000
     41 CA1         1.2630   -0.1800   -0.0250 C.3       1 HPL1        0.0000
     42 HA1         1.4620   -0.6740   -1.0100 H         1 HPL1        0.0000
     43 OA1         1.6640   -1.0170    1.0450 O.3       1 HPL1        0.0000
     44 OPA2        2.8790   -2.9290    2.1130 O.3       1 HPL1        0.0000
     45 OPA3        2.5830   -2.8470   -0.4200 O.2       1 HPL1        0.0000
     46 OPA4        4.1580   -1.2160    0.7110 O.3       1 HPL1        0.0000
     47 PA          2.9090   -2.0790    0.8420 P.3       1 HPL1        0.0000
     48 CA3         1.5510    1.9750    1.1830 C.3       1 HPL1        0.0000
     49 HA3         1.8320    1.3600    2.0760 H         1 HPL1        0.0000
     50 OA3         2.3940    3.1310    1.1970 O.3       1 HPL1        0.0000
     51 C31         2.0170    4.3690    1.0520 C.2       1 HPL1        0.0000
     52 O31         0.8750    4.8030    1.0350 O.2       1 HPL1        0.0000
     53 C32         3.2620    5.2120    1.3010 C.3       1 HPL1        0.0000
     54 H32R        4.0170    4.9420    0.5350 H         1 HPL1        0.0000
     55 H32S        3.6650    4.9410    2.2980 H         1 HPL1        0.0000
     56 CA2         1.9290    1.1800   -0.0440 C.3       1 HPL1        0.0000
     57 HA2         1.4890    1.7190   -0.9240 H         1 HPL1        0.0000
     58 NA2         3.3460    1.0480   -0.2720 N.am      1 HPL1        0.0000
     59 HNA2        3.7260    0.1960    0.1520 H         1 HPL1        0.0000
     60 C73        -5.6590    7.6790   -4.4380 C.3       1 HPL1        0.0000
     61 H73R       -6.4200    8.2420   -3.8420 H         1 HPL1        0.0000
     62 O73        -5.9540    7.6310   -5.8340 O.3       1 HPL1        0.0000
     63 C81        -7.1170    8.1230   -6.2070 C.2       1 HPL1        0.0000
     64 O81        -7.7890    8.9320   -5.5910 O.2       1 HPL1        0.0000
     65 C82        -7.3430    7.8040   -7.6950 C.3       1 HPL1        0.0000
     66 H82R       -7.8700    8.6910   -8.1010 H         1 HPL1        0.0000
     67 H82S       -8.0370    6.9430   -7.7660 H         1 HPL1        0.0000
     68 C83        -6.0680    7.5350   -8.5390 C.3       1 HPL1        0.0000
     69 H83R       -5.9270    6.4380   -8.6640 H         1 HPL1        0.0000
     70 H83S       -5.1590    7.9290   -8.0300 H         1 HPL1        0.0000
     71 C84        -6.1380    8.2300   -9.9050 C.3       1 HPL1        0.0000
     72 H84R       -6.3150    9.3150   -9.7170 H         1 HPL1        0.0000
     73 H84S       -7.0020    7.8470  -10.4900 H         1 HPL1        0.0000
     74 C85        -4.8490    8.0970  -10.7280 C.3       1 HPL1        0.0000
     75 H85R       -4.9760    7.3010  -11.4940 H         1 HPL1        0.0000
     76 H85S       -4.0130    7.7820  -10.0640 H         1 HPL1        0.0000
     77 C86        -4.4650    9.4220  -11.4000 C.3       1 HPL1        0.0000
     78 H86R       -4.3300   10.1960  -10.6100 H         1 HPL1        0.0000
     79 H86S       -5.3050    9.7510  -12.0520 H         1 HPL1        0.0000
     80 C87        -3.1760    9.3370  -12.2260 C.3       1 HPL1        0.0000
     81 H87R       -3.2260    8.4670  -12.9190 H         1 HPL1        0.0000
     82 H87S       -2.3240    9.1680  -11.5300 H         1 HPL1        0.0000
     83 C88        -2.9260   10.6120  -13.0440 C.3       1 HPL1        0.0000
     84 H88R       -3.2890   11.4930  -12.4670 H         1 HPL1        0.0000
     85 H88S       -3.5260   10.5600  -13.9800 H         1 HPL1        0.0000
     86 C89        -1.4490   10.8570  -13.3880 C.3       1 HPL1        0.0000
     87 H89R       -0.8960   11.1150  -12.4570 H         1 HPL1        0.0000
     88 H89S       -1.3940   11.7420  -14.0630 H         1 HPL1        0.0000
     89 C810       -0.7530    9.6670  -14.0640 C.3       1 HPL1        0.0000
     90 H810       -1.4010    9.2870  -14.8840 H         1 HPL1        0.0000
     91 H810       -0.6190    8.8430  -13.3280 H         1 HPL1        0.0000
     92 C811        0.6110   10.0520  -14.6550 C.3       1 HPL1        0.0000
     93 H811        1.2740   10.4380  -13.8490 H         1 HPL1        0.0000
     94 H811        0.4530   10.8780  -15.3850 H         1 HPL1        0.0000
     95 C812        1.3020    8.8860  -15.3770 C.3       1 HPL1        0.0000
     96 H812        0.5770    8.4100  -16.0760 H         1 HPL1        0.0000
     97 H812        1.6050    8.1170  -14.6330 H         1 HPL1        0.0000
     98 C813        2.5310    9.3380  -16.1790 C.3       1 HPL1        0.0000
     99 H813        3.2790    9.7730  -15.4790 H         1 HPL1        0.0000
    100 H813        2.2190   10.1470  -16.8770 H         1 HPL1        0.0000
    101 C814        3.1830    8.2140  -16.9870 C.3       1 HPL1        0.0000
    102 H814        2.4600    7.7920  -17.7180 H         1 HPL1        0.0000
    103 H814        3.5210    7.3950  -16.3160 H         1 HPL1        0.0000
    104 H814        4.0640    8.5980  -17.5470 H         1 HPL1        0.0000
    105 C74        -4.2840    8.3760   -4.2700 C.3       1 HPL1        0.0000
    106 H74R       -3.5120    7.8050   -4.8260 H         1 HPL1        0.0000
    107 H74S       -4.0080    8.3560   -3.1930 H         1 HPL1        0.0000
    108 C75        -4.2880    9.8510   -4.7260 C.3       1 HPL1        0.0000
    109 H75R       -3.7980   10.4880   -3.9560 H         1 HPL1        0.0000
    110 H75S       -5.3510   10.1750   -4.8020 H         1 HPL1        0.0000
    111 C76        -3.5980   10.0900   -6.0770 C.3       1 HPL1        0.0000
    112 H76R       -3.7860    9.2240   -6.7500 H         1 HPL1        0.0000
    113 H76S       -2.5010   10.1350   -5.9050 H         1 HPL1        0.0000
    114 C77        -4.0770   11.3690   -6.7870 C.3       1 HPL1        0.0000
    115 H77R       -4.6900   11.9850   -6.0920 H         1 HPL1        0.0000
    116 H77S       -4.7340   11.0620   -7.6330 H         1 HPL1        0.0000
    117 C78        -2.9270   12.2320   -7.3230 C.3       1 HPL1        0.0000
    118 H78R       -2.1940   11.5430   -7.7990 H         1 HPL1        0.0000
    119 H78S       -2.4110   12.7510   -6.4850 H         1 HPL1        0.0000
    120 C79        -3.3600   13.2510   -8.3890 C.3       1 HPL1        0.0000
    121 H79R       -3.9090   14.0960   -7.9220 H         1 HPL1        0.0000
    122 H79S       -4.0530   12.7430   -9.0970 H         1 HPL1        0.0000
    123 C710       -2.1550   13.7560   -9.1930 C.3       1 HPL1        0.0000
    124 H710       -1.5950   12.8510   -9.5280 H         1 HPL1        0.0000
    125 H710       -1.4780   14.3530   -8.5450 H         1 HPL1        0.0000
    126 C711       -2.5080   14.5370  -10.4640 C.3       1 HPL1        0.0000
    127 H711       -3.4280   14.1270  -10.9330 H         1 HPL1        0.0000
    128 H711       -1.6790   14.3710  -11.1910 H         1 HPL1        0.0000
    129 C712       -2.6240   16.0550  -10.2760 C.3       1 HPL1        0.0000
    130 H712       -1.8280   16.4180   -9.5850 H         1 HPL1        0.0000
    131 H712       -3.6060   16.2970   -9.8180 H         1 HPL1        0.0000
    132 C713       -2.4610   16.7670  -11.6250 C.3       1 HPL1        0.0000
    133 H713       -3.1180   16.2750  -12.3770 H         1 HPL1        0.0000
    134 H713       -1.4080   16.6300  -11.9610 H         1 HPL1        0.0000
    135 C714       -2.7960   18.2630  -11.6070 C.3       1 HPL1        0.0000
    136 H714       -2.2730   18.7720  -10.7700 H         1 HPL1        0.0000
    137 H714       -3.8900   18.3790  -11.4340 H         1 HPL1        0.0000
    138 C715       -2.3980   18.9430  -12.9260 C.3       1 HPL1        0.0000
    139 H715       -2.4170   18.1770  -13.7350 H         1 HPL1        0.0000
    140 H715       -1.3460   19.3020  -12.8490 H         1 HPL1        0.0000
    141 C716       -3.3150   20.0960  -13.3350 C.3       1 HPL1        0.0000
    142 H716       -3.4290   20.8250  -12.5060 H         1 HPL1        0.0000
    143 H716       -4.3220   19.7080  -13.6030 H         1 HPL1        0.0000
    144 H716       -2.8990   20.6260  -14.2190 H         1 HPL1        0.0000
    145 C51        -1.5600    4.0570   -2.4570 C.2       1 HPL1        0.0000
    146 O51        -1.9300    3.6320   -3.5480 O.2       1 HPL1        0.0000
    147 C52        -0.1460    4.5450   -2.2560 C.3       1 HPL1        0.0000
    148 H52R        0.4570    3.6820   -1.8990 H         1 HPL1        0.0000
    149 H52S       -0.1270    5.3340   -1.4800 H         1 HPL1        0.0000
    150 C53         0.4710    5.0730   -3.5590 C.3       1 HPL1        0.0000
    151 H53R        0.3690    4.2860   -4.3480 H         1 HPL1        0.0000
    152 O53         1.8380    5.3630   -3.2290 O.3       1 HPL1        0.0000
    153 C61         2.7500    4.8580   -4.0570 C.2       1 HPL1        0.0000
    154 O61         2.5270    4.3170   -5.1180 O.2       1 HPL1        0.0000
    155 C62         4.1480    5.2550   -3.5780 C.3       1 HPL1        0.0000
    156 H62R        4.8820    4.7470   -4.2350 H         1 HPL1        0.0000
    157 H62S        4.2740    4.8710   -2.5460 H         1 HPL1        0.0000
    158 C63         4.3910    6.7750   -3.5590 C.3       1 HPL1        0.0000
    159 H63R        5.3460    6.9650   -3.0160 H         1 HPL1        0.0000
    160 H63S        3.5840    7.2880   -2.9950 H         1 HPL1        0.0000
    161 C64         4.5110    7.3940   -4.9530 C.3       1 HPL1        0.0000
    162 H64R        3.5860    7.2110   -5.5410 H         1 HPL1        0.0000
    163 H64S        5.3490    6.9090   -5.5000 H         1 HPL1        0.0000
    164 C65         4.7630    8.9000   -4.8580 C.3       1 HPL1        0.0000
    165 H65R        5.6410    9.0700   -4.1930 H         1 HPL1        0.0000
    166 H65S        3.8850    9.3980   -4.3890 H         1 HPL1        0.0000
    167 C66         5.0500    9.5370   -6.2180 C.3       1 HPL1        0.0000
    168 H66R        4.1690    9.4230   -6.8880 H         1 HPL1        0.0000
    169 H66S        5.8980    8.9950   -6.6900 H         1 HPL1        0.0000
    170 C67         5.4090   11.0200   -6.0890 C.3       1 HPL1        0.0000
    171 H67R        6.0980   11.1690   -5.2270 H         1 HPL1        0.0000
    172 H67S        4.4770   11.5890   -5.8710 H         1 HPL1        0.0000
    173 C68         6.0790   11.5690   -7.3520 C.3       1 HPL1        0.0000
    174 H68R        5.8530   10.9040   -8.2150 H         1 HPL1        0.0000
    175 H68S        7.1820   11.5630   -7.2090 H         1 HPL1        0.0000
    176 C69         5.6240   12.9890   -7.6960 C.3       1 HPL1        0.0000
    177 H69R        5.8080   13.6520   -6.8210 H         1 HPL1        0.0000
    178 H69S        4.5290   12.9900   -7.8970 H         1 HPL1        0.0000
    179 C610        6.3640   13.5430   -8.9160 C.3       1 HPL1        0.0000
    180 H610        6.0680   12.9650   -9.8200 H         1 HPL1        0.0000
    181 H610        7.4600   13.4050   -8.7710 H         1 HPL1        0.0000
    182 C611        6.0860   15.0320   -9.1370 C.3       1 HPL1        0.0000
    183 H611        6.4900   15.5980   -8.2670 H         1 HPL1        0.0000
    184 H611        4.9870   15.2080   -9.1750 H         1 HPL1        0.0000
    185 C612        6.7230   15.5620  -10.4250 C.3       1 HPL1        0.0000
    186 H612        6.1330   15.1970  -11.2960 H         1 HPL1        0.0000
    187 H612        7.7560   15.1580  -10.5250 H         1 HPL1        0.0000
    188 C613        6.7940   17.0920  -10.4460 C.3       1 HPL1        0.0000
    189 H613        7.5780   17.4200   -9.7260 H         1 HPL1        0.0000
    190 H613        5.8230   17.5140  -10.1010 H         1 HPL1        0.0000
    191 C614        7.1070   17.6520  -11.8370 C.3       1 HPL1        0.0000
    192 H614        6.2100   17.5190  -12.4830 H         1 HPL1        0.0000
    193 H614        7.9430   17.0760  -12.2940 H         1 HPL1        0.0000
    194 C615        7.4960   19.1350  -11.7910 C.3       1 HPL1        0.0000
    195 H615        8.5100   19.2260  -11.3420 H         1 HPL1        0.0000
    196 H615        6.7850   19.6830  -11.1320 H         1 HPL1        0.0000
    197 C616        7.4840   19.7900  -13.1770 C.3       1 HPL1        0.0000
    198 H616        6.4350   19.8280  -13.5470 H         1 HPL1        0.0000
    199 H616        8.0710   19.1640  -13.8870 H         1 HPL1        0.0000
    200 C617        8.0700   21.2070  -13.1630 C.3       1 HPL1        0.0000
    201 H617        9.1500   21.1420  -12.8970 H         1 HPL1        0.0000
    202 H617        7.5670   21.7990  -12.3650 H         1 HPL1        0.0000
    203 C618        7.9170   21.9320  -14.5020 C.3       1 HPL1        0.0000
    204 H618        6.8410   22.0770  -14.7400 H         1 HPL1        0.0000
    205 H618        8.3800   21.3390  -15.3200 H         1 HPL1        0.0000
    206 H618        8.4070   22.9280  -14.4660 H         1 HPL1        0.0000
    207 C54        -0.2090    6.3720   -4.0600 C.3       1 HPL1        0.0000
    208 H54R       -0.2680    7.0950   -3.2180 H         1 HPL1        0.0000
    209 H54S       -1.2470    6.1270   -4.3800 H         1 HPL1        0.0000
    210 C55         0.5320    7.0270   -5.2390 C.3       1 HPL1        0.0000
    211 H55R        0.6750    6.2650   -6.0390 H         1 HPL1        0.0000
    212 H55S        1.5380    7.3420   -4.8870 H         1 HPL1        0.0000
    213 C56        -0.1630    8.2530   -5.8450 C.3       1 HPL1        0.0000
    214 H56R       -0.2260    9.0500   -5.0780 H         1 HPL1        0.0000
    215 H56S       -1.2080    7.9950   -6.1270 H         1 HPL1        0.0000
    216 C57         0.5930    8.7650   -7.0820 C.3       1 HPL1        0.0000
    217 H57R        0.1280    8.3060   -7.9840 H         1 HPL1        0.0000
    218 H57S        1.6480    8.4090   -7.0410 H         1 HPL1        0.0000
    219 C58         0.6310   10.2920   -7.2410 C.3       1 HPL1        0.0000
    220 H58R        1.3450   10.7210   -6.5020 H         1 HPL1        0.0000
    221 H58S       -0.3710   10.7170   -7.0250 H         1 HPL1        0.0000
    222 C59         1.0570   10.6840   -8.6640 C.3       1 HPL1        0.0000
    223 H59R        0.2720   10.3360   -9.3740 H         1 HPL1        0.0000
    224 H59S        1.9960   10.1430   -8.9200 H         1 HPL1        0.0000
    225 C510        1.2860   12.1860   -8.8760 C.3       1 HPL1        0.0000
    226 H510        2.0670   12.5520   -8.1750 H         1 HPL1        0.0000
    227 H510        0.3500   12.7360   -8.6450 H         1 HPL1        0.0000
    228 C511        1.7230   12.4850  -10.3180 C.3       1 HPL1        0.0000
    229 H511        1.0650   11.9330  -11.0270 H         1 HPL1        0.0000
    230 H511        2.7590   12.1010  -10.4580 H         1 HPL1        0.0000
    231 C512        1.6840   13.9730  -10.6900 C.3       1 HPL1        0.0000
    232 H512        2.1520   14.5760   -9.8810 H         1 HPL1        0.0000
    233 H512        0.6240   14.2990  -10.7820 H         1 HPL1        0.0000
    234 C513        2.4250   14.2460  -12.0060 C.3       1 HPL1        0.0000
    235 H513        2.0830   13.5240  -12.7820 H         1 HPL1        0.0000
    236 H513        3.5110   14.0690  -11.8380 H         1 HPL1        0.0000
    237 C514        2.2210   15.6710  -12.5350 C.3       1 HPL1        0.0000
    238 H514        2.4090   16.3980  -11.7140 H         1 HPL1        0.0000
    239 H514        1.1640   15.7920  -12.8620 H         1 HPL1        0.0000
    240 C515        3.1610   15.9940  -13.7060 C.3       1 HPL1        0.0000
    241 H515        3.0050   15.2500  -14.5190 H         1 HPL1        0.0000
    242 H515        4.2140   15.8980  -13.3580 H         1 HPL1        0.0000
    243 C516        2.9490   17.4050  -14.2680 C.3       1 HPL1        0.0000
    244 H516        3.0700   18.1470  -13.4470 H         1 HPL1        0.0000
    245 H516        1.9080   17.4930  -14.6530 H         1 HPL1        0.0000
    246 C517        3.9340   17.7430  -15.3950 C.3       1 HPL1        0.0000
    247 H517        3.8180   16.9920  -16.2090 H         1 HPL1        0.0000
    248 H517        4.9720   17.6510  -15.0020 H         1 HPL1        0.0000
    249 C518        3.7360   19.1470  -15.9720 C.3       1 HPL1        0.0000
    250 H518        3.8740   19.9150  -15.1810 H         1 HPL1        0.0000
    251 H518        2.7110   19.2530  -16.3900 H         1 HPL1        0.0000
    252 H518        4.4690   19.3420  -16.7840 H         1 HPL1        0.0000
    253 C33         2.9840    6.7210    1.2490 C.3       1 HPL1        0.0000
    254 H33R        3.9290    7.2540    1.5110 H         1 HPL1        0.0000
    255 O33         2.0240    7.0590    2.2320 O.3       1 HPL1        0.0000
    256 HO33        1.1670    6.6430    2.0820 H         1 HPL1        0.0000
    257 C34         2.5280    7.2250   -0.1330 C.3       1 HPL1        0.0000
    258 H34R        1.5580    6.7590   -0.4110 H         1 HPL1        0.0000
    259 H34S        3.2830    6.8950   -0.8790 H         1 HPL1        0.0000
    260 C35         2.3740    8.7530   -0.2160 C.3       1 HPL1        0.0000
    261 H35R        3.3040    9.2500    0.1380 H         1 HPL1        0.0000
    262 H35S        1.5550    9.0550    0.4760 H         1 HPL1        0.0000
    263 C36         2.0390    9.2400   -1.6340 C.3       1 HPL1        0.0000
    264 H36R        1.7100    8.3700   -2.2480 H         1 HPL1        0.0000
    265 H36S        2.9540    9.6560   -2.1100 H         1 HPL1        0.0000
    266 C37         0.9120   10.2810   -1.6480 C.3       1 HPL1        0.0000
    267 H37R        1.1840   11.1380   -0.9950 H         1 HPL1        0.0000
    268 H37S        0.0090    9.8030   -1.2020 H         1 HPL1        0.0000
    269 C38         0.5520   10.7730   -3.0600 C.3       1 HPL1        0.0000
    270 H38R       -0.5520   10.6840   -3.1810 H         1 HPL1        0.0000
    271 H38S        1.0240   10.1060   -3.8140 H         1 HPL1        0.0000
    272 C39         0.9540   12.2270   -3.3530 C.3       1 HPL1        0.0000
    273 H39R        1.9490   12.2300   -3.8530 H         1 HPL1        0.0000
    274 H39S        1.0650   12.7820   -2.3960 H         1 HPL1        0.0000
    275 C310       -0.0680   12.9820   -4.2230 C.3       1 HPL1        0.0000
    276 H310       -1.0770   12.9320   -3.7560 H         1 HPL1        0.0000
    277 H310       -0.1260   12.4780   -5.2130 H         1 HPL1        0.0000
    278 C311        0.3260   14.4540   -4.4150 C.3       1 HPL1        0.0000
    279 H311        1.4400   14.4760   -4.4860 H         1 HPL1        0.0000
    280 H311        0.0500   15.0570   -3.5270 H         1 HPL1        0.0000
    281 C312       -0.2050   15.1040   -5.7030 C.3       1 HPL1        0.0000
    282 H312       -0.2960   14.3480   -6.5070 H         1 HPL1        0.0000
    283 H312        0.6030   15.7910   -6.0370 H         1 HPL1        0.0000
    284 C313       -1.4940   15.9450   -5.5850 C.3       1 HPL1        0.0000
    285 H313       -1.7680   16.0900   -4.5160 H         1 HPL1        0.0000
    286 H313       -2.3200   15.3780   -6.0690 H         1 HPL1        0.0000
    287 C314       -1.3250   17.3250   -6.2560 C.3       1 HPL1        0.0000
    288 H314       -0.5740   17.2270   -7.0750 H         1 HPL1        0.0000
    289 H314       -0.9330   18.0500   -5.5050 H         1 HPL1        0.0000
    290 C315       -2.5820   17.8980   -6.9200 C.3       1 HPL1        0.0000
    291 H315       -3.3750   18.0610   -6.1620 H         1 HPL1        0.0000
    292 H315       -2.9770   17.1470   -7.6380 H         1 HPL1        0.0000
    293 C316       -2.2930   19.2050   -7.6660 C.3       1 HPL1        0.0000
    294 H316       -1.4540   19.0470   -8.3820 H         1 HPL1        0.0000
    295 H316       -1.9710   19.9890   -6.9490 H         1 HPL1        0.0000
    296 H316       -3.2000   19.5740   -8.1960 H         1 HPL1        0.0000
    297 C11         4.0350    1.6490   -1.2370 C.2       1 HPL1        0.0000
    298 O11         3.7660    2.7740   -1.6360 O.2       1 HPL1        0.0000
    299 C12         5.1050    0.7870   -1.8800 C.3       1 HPL1        0.0000
    300 H12R        4.5610   -0.0410   -2.3830 H         1 HPL1        0.0000
    301 H12S        5.7250    0.3190   -1.0890 H         1 HPL1        0.0000
    302 C13         5.9660    1.5730   -2.8840 C.3       1 HPL1        0.0000
    303 H13R        5.3690    2.3510   -3.4100 H         1 HPL1        0.0000
    304 O13         6.4230    0.6470   -3.8590 O.3       1 HPL1        0.0000
    305 HO13        5.7220    0.1400   -4.2730 H         1 HPL1        0.0000
    306 C14         7.1910    2.2190   -2.2010 C.3       1 HPL1        0.0000
    307 H14R        7.7180    1.4060   -1.6530 H         1 HPL1        0.0000
    308 H14S        6.8370    2.9460   -1.4400 H         1 HPL1        0.0000
    309 C15         8.2160    2.8960   -3.1350 C.3       1 HPL1        0.0000
    310 H15R        8.5770    2.1550   -3.8840 H         1 HPL1        0.0000
    311 H15S        9.0910    3.1930   -2.5150 H         1 HPL1        0.0000
    312 C16         7.6810    4.1360   -3.8630 C.3       1 HPL1        0.0000
    313 H16R        7.1480    4.7810   -3.1280 H         1 HPL1        0.0000
    314 H16S        6.9440    3.8130   -4.6320 H         1 HPL1        0.0000
    315 C17         8.7930    4.9670   -4.5280 C.3       1 HPL1        0.0000
    316 H17R        9.3870    4.3190   -5.2080 H         1 HPL1        0.0000
    317 H17S        9.4800    5.3350   -3.7340 H         1 HPL1        0.0000
    318 C18         8.2410    6.1660   -5.3110 C.3       1 HPL1        0.0000
    319 H18R        7.4790    6.6700   -4.6760 H         1 HPL1        0.0000
    320 H18S        7.7240    5.7980   -6.2240 H         1 HPL1        0.0000
    321 C19         9.3020    7.2120   -5.7020 C.3       1 HPL1        0.0000
    322 H19R       10.0520    6.7610   -6.3870 H         1 HPL1        0.0000
    323 H19S        9.8300    7.5430   -4.7790 H         1 HPL1        0.0000
    324 C110        8.6600    8.4410   -6.3630 C.3       1 HPL1        0.0000
    325 H110        7.8760    8.8130   -5.6630 H         1 HPL1        0.0000
    326 H110        8.1480    8.1430   -7.3030 H         1 HPL1        0.0000
    327 C111        9.6150    9.6150   -6.6380 C.3       1 HPL1        0.0000
    328 H111       10.3000    9.7710   -5.7790 H         1 HPL1        0.0000
    329 H111        8.9840   10.5290   -6.7140 H         1 HPL1        0.0000
    330 C112       10.4150    9.5080   -7.9480 C.3       1 HPL1        0.0000
    331 H112        9.7660    9.0590   -8.7330 H         1 HPL1        0.0000
    332 H112       11.2870    8.8340   -7.7990 H         1 HPL1        0.0000
    333 C113       10.8820   10.8870   -8.4480 C.3       1 HPL1        0.0000
    334 H113       11.5160   11.3690   -7.6720 H         1 HPL1        0.0000
    335 H113        9.9840   11.5290   -8.5940 H         1 HPL1        0.0000
    336 C114       11.6600   10.8390   -9.7730 C.3       1 HPL1        0.0000
    337 H114       11.0720   10.2610  -10.5200 H         1 HPL1        0.0000
    338 H114       12.6220   10.3050   -9.6160 H         1 HPL1        0.0000
    339 C115       11.9370   12.2410  -10.3410 C.3       1 HPL1        0.0000
    340 H115       12.5140   12.8290   -9.5930 H         1 HPL1        0.0000
    341 H115       10.9660   12.7620  -10.5020 H         1 HPL1        0.0000
    342 C116       12.7120   12.2200  -11.6670 C.3       1 HPL1        0.0000
    343 H116       12.1410   11.6270  -12.4170 H         1 HPL1        0.0000
    344 H116       13.6910   11.7130  -11.5100 H         1 HPL1        0.0000
    345 C117       12.9590   13.6290  -12.2250 C.3       1 HPL1        0.0000
    346 H117       13.5150   14.2220  -11.4630 H         1 HPL1        0.0000
    347 H117       11.9760   14.1290  -12.3820 H         1 HPL1        0.0000
    348 C118       13.7450   13.6450  -13.5400 C.3       1 HPL1        0.0000
    349 H118       13.1970   13.0850  -14.3290 H         1 HPL1        0.0000
    350 H118       14.7420   13.1740  -13.4040 H         1 HPL1        0.0000
    351 H118       13.8950   14.6880  -13.8910 H         1 HPL1        0.0000
@<TRIPOS>BOND
     1  102  101 1 
     2  104  101 1 
     3  101  103 1 
     4  101   98 1 
     5  100   98 1 
     6  252  249 1 
     7  251  249 1 
     8  247  246 1 
     9   98   99 1 
    10   98   95 1 
    11   96   95 1 
    12  249  246 1 
    13  249  250 1 
    14  246  248 1 
    15  246  243 1 
    16   94   92 1 
    17   95   92 1 
    18   95   97 1 
    19  205  203 1 
    20   90   89 1 
    21  204  203 1 
    22   92   89 1 
    23   92   93 1 
    24  245  243 1 
    25  241  240 1 
    26  203  206 1 
    27  203  200 1 
    28  349  348 1 
    29  243  240 1 
    30  243  244 1 
    31  144  141 1 
    32   89   86 1 
    33   89   91 1 
    34   88   86 1 
    35   85   83 1 
    36  351  348 1 
    37  199  197 1 
    38  139  138 1 
    39  240  242 1 
    40  240  237 1 
    41  143  141 1 
    42  198  197 1 
    43  348  350 1 
    44  348  345 1 
    45   86   83 1 
    46   86   87 1 
    47  141  138 1 
    48  141  142 1 
    49  197  200 1 
    50  197  194 1 
    51  200  201 1 
    52  200  202 1 
    53   83   84 1 
    54   83   80 1 
    55  138  140 1 
    56  138  135 1 
    57   81   80 1 
    58  239  237 1 
    59  235  234 1 
    60  237  234 1 
    61  237  238 1 
    62  192  191 1 
    63  343  342 1 
    64  347  345 1 
    65  133  132 1 
    66  193  191 1 
    67   80   82 1 
    68   80   77 1 
    69  345  342 1 
    70  345  346 1 
    71   79   77 1 
    72  234  236 1 
    73  234  231 1 
    74  134  132 1 
    75  191  194 1 
    76  191  188 1 
    77  194  195 1 
    78  194  196 1 
    79  342  344 1 
    80  342  339 1 
    81  132  135 1 
    82  132  129 1 
    83  135  137 1 
    84  135  136 1 
    85   75   74 1 
    86   77   74 1 
    87   77   78 1 
    88  186  185 1 
    89  128  126 1 
    90  229  228 1 
    91  127  126 1 
    92  233  231 1 
    93   74   76 1 
    94   74   71 1 
    95  231  228 1 
    96  231  232 1 
    97  187  185 1 
    98  337  336 1 
    99  341  339 1 
   100   73   71 1 
   101  126  129 1 
   102  126  123 1 
   103  230  228 1 
   104  188  185 1 
   105  188  190 1 
   106  188  189 1 
   107  185  182 1 
   108  339  336 1 
   109  339  340 1 
   110  228  225 1 
   111  129  131 1 
   112  129  130 1 
   113   71   72 1 
   114   71   68 1 
   115  180  179 1 
   116  336  338 1 
   117  336  333 1 
   118  124  123 1 
   119  223  222 1 
   120  123  125 1 
   121  123  120 1 
   122  184  182 1 
   123  182  179 1 
   124  182  183 1 
   125  122  120 1 
   126  224  222 1 
   127  179  181 1 
   128  179  176 1 
   129  225  222 1 
   130  225  227 1 
   131  225  226 1 
   132  331  330 1 
   133   69   68 1 
   134  222  219 1 
   135  335  333 1 
   136   68   70 1 
   137   68   65 1 
   138  333  330 1 
   139  333  334 1 
   140  120  121 1 
   141  120  117 1 
   142  294  293 1 
   143  174  173 1 
   144  296  293 1 
   145   66   65 1 
   146  217  216 1 
   147  330  332 1 
   148  330  327 1 
   149  178  176 1 
   150  118  117 1 
   151   67   65 1 
   152  176  173 1 
   153  176  177 1 
   154   65   63 1 
   155  293  295 1 
   156  293  290 1 
   157  292  290 1 
   158  116  114 1 
   159  173  175 1 
   160  173  170 1 
   161  117  114 1 
   162  117  119 1 
   163  326  324 1 
   164  219  216 1 
   165  219  221 1 
   166  219  220 1 
   167  216  218 1 
   168  216  213 1 
   169  288  287 1 
   170  290  287 1 
   171  290  291 1 
   172  168  167 1 
   173  114  115 1 
   174  114  111 1 
   175  112  111 1 
   176  329  327 1 
   177  169  167 1 
   178  327  324 1 
   179  327  328 1 
   180  282  281 1 
   181  322  321 1 
   182  324  321 1 
   183  324  325 1 
   184  287  284 1 
   185  287  289 1 
   186  320  318 1 
   187  167  170 1 
   188  167  164 1 
   189   63   62 1 
   190   63   64 2 
   191  215  213 1 
   192  170  172 1 
   193  170  171 1 
   194  111  113 1 
   195  111  108 1 
   196  286  284 1 
   197  211  210 1 
   198  283  281 1 
   199  213  210 1 
   200  213  214 1 
   201   62   60 1 
   202  281  284 1 
   203  281  278 1 
   204  321  318 1 
   205  321  323 1 
   206  284  285 1 
   207  162  161 1 
   208  163  161 1 
   209  318  319 1 
   210  318  315 1 
   211  210  212 1 
   212  210  207 1 
   213  277  275 1 
   214  316  315 1 
   215  154  153 2 
   216  161  164 1 
   217  161  158 1 
   218  164  166 1 
   219  164  165 1 
   220  106  105 1 
   221  110  108 1 
   222  108  105 1 
   223  108  109 1 
   224  314  312 1 
   225   29   27 1 
   226  315  312 1 
   227  315  317 1 
   228  279  278 1 
   229   60  105 1 
   230   60   27 1 
   231   60   61 1 
   232  278  275 1 
   233  278  280 1 
   234  209  207 1 
   235  151  150 1 
   236  305  304 1 
   237  105  107 1 
   238   28   27 1 
   239  156  155 1 
   240  275  276 1 
   241  275  272 1 
   242  207  150 1 
   243  207  208 1 
   244  153  155 1 
   245  153  152 1 
   246   27   25 1 
   247  310  309 1 
   248  312  309 1 
   249  312  313 1 
   250  304  302 1 
   251  273  272 1 
   252  271  269 1 
   253  155  158 1 
   254  155  157 1 
   255  158  159 1 
   256  158  160 1 
   257  150  152 1 
   258  150  147 1 
   259  146  145 2 
   260  303  302 1 
   261  272  269 1 
   262  272  274 1 
   263  270  269 1 
   264  309  311 1 
   265  309  306 1 
   266  269  266 1 
   267   21   18 2 
   268  302  306 1 
   269  302  299 1 
   270   25   23 1 
   271   25   26 2 
   272   23   22 1 
   273  145  147 1 
   274  145   32 am
   275   19   18 1 
   276  300  299 1 
   277  147  148 1 
   278  147  149 1 
   279  264  263 1 
   280  306  307 1 
   281  306  308 1 
   282  265  263 1 
   283   31   30 1 
   284   18   20 1 
   285   18   17 1 
   286  299  297 1 
   287  299  301 1 
   288   16   15 1 
   289  266  263 1 
   290  266  268 1 
   291  266  267 1 
   292  298  297 2 
   293  263  260 1 
   294   32   30 1 
   295   32   33 1 
   296  297   58 am
   297   30   22 1 
   298   30    9 1 
   299   22   15 1 
   300   22   24 1 
   301   42   41 1 
   302   15   17 1 
   303   15    6 1 
   304   57   56 1 
   305  259  257 1 
   306   45   47 2 
   307  258  257 1 
   308    5    4 1 
   309   58   56 1 
   310   58   59 1 
   311  260  257 1 
   312  260  261 1 
   313  260  262 1 
   314  257  253 1 
   315   11    9 1 
   316   11   12 1 
   317   56   41 1 
   318   56   48 1 
   319   41   40 1 
   320   41   43 1 
   321   40   38 1 
   322    9    7 1 
   323    9   10 1 
   324    7    6 1 
   325   35   34 1 
   326    6    4 1 
   327    6    8 1 
   328   54   53 1 
   329    4    1 1 
   330    4    2 1 
   331   46   47 1 
   332   47   43 1 
   333   47   44 1 
   334   13   12 1 
   335   12   38 1 
   336   12   14 1 
   337   52   51 2 
   338   51   50 1 
   339   51   53 1 
   340   38   34 1 
   341   38   39 1 
   342   48   50 1 
   343   48   34 1 
   344   48   49 1 
   345   34   36 1 
   346  253   53 1 
   347  253  254 1 
   348  253  255 1 
   349   53   55 1 
   350    3    2 1 
   351  256  255 1 
   352   37   36 1 
