@<TRIPOS>MOLECULE
C:\Users\Praveer\PycharmProjects\pdb_to_mol2_converter\data\pdb\hpme.pdb
   15    14     0     0     0
SMALL
GASTEIGER

@<TRIPOS>ATOM
      1 C5          1.1090    0.0040    0.0090 C.3       1 HPM1        0.0000
      2 H51        -0.0020    0.0060    0.0140 H         1 HPM1        0.0000
      3 H52         1.4690   -0.5440    0.9050 H         1 HPM1        0.0000
      4 H53         1.4530   -0.5360   -0.8980 H         1 HPM1        0.0000
      5 C7          1.6450    1.4520    0.0070 C.3       1 HPM1        0.0000
      6 H7          1.2780    1.9730    0.9170 H         1 HPM1        0.0000
      7 O7          1.1050    2.1150   -1.1520 O.3       1 HPM1        0.0000
      8 HO7         1.6780    2.8680   -1.3420 H         1 HPM1        0.0000
      9 C8          3.2240    1.5000    0.0530 C.2       1 HPM1        0.0000
     10 O8          3.9350    0.6800    0.6090 O.2       1 HPM1        0.0000
     11 O9          3.6870    2.6070   -0.5630 O.3       1 HPM1        0.0000
     12 C10         5.1220    2.6920   -0.5220 C.3       1 HPM1        0.0000
     13 H101        5.5860    1.8110   -1.0200 H         1 HPM1        0.0000
     14 H102        5.4860    2.7420    0.5300 H         1 HPM1        0.0000
     15 H103        5.4620    3.6090   -1.0510 H         1 HPM1        0.0000
@<TRIPOS>BOND
     1    8    7 1 
     2    7    5 1 
     3   15   12 1 
     4   13   12 1 
     5    4    1 1 
     6   11   12 1 
     7   11    9 1 
     8   12   14 1 
     9    5    1 1 
    10    5    9 1 
    11    5    6 1 
    12    1    2 1 
    13    1    3 1 
    14    9   10 2 
