@<TRIPOS>MOLECULE
C:\Users\Praveer\PycharmProjects\pdb_to_mol2_converter\data\pdb\hta.pdb
   43    42     0     0     0
SMALL
GASTEIGER

@<TRIPOS>ATOM
      1 O1         -0.0660    0.1560    0.0060 O.co2     1 HTA1        0.0000
      2 O2          1.8620   -0.9310   -0.2120 O.co2     1 HTA1        0.0000
      3 C1          1.1890    0.1230   -0.0740 C.2       1 HTA1        0.0000
      4 C2          1.9170    1.4660    0.0060 C.3       1 HTA1        0.0000
      5 H2R         1.6350    1.9320    0.9720 H         1 HTA1        0.0000
      6 H2S         1.5330    2.0980   -0.8190 H         1 HTA1        0.0000
      7 C3          3.4540    1.3400   -0.0910 C.3       1 HTA1        0.0000
      8 H3R         3.7170    0.8740   -1.0680 H         1 HTA1        0.0000
      9 H3S         3.8090    0.6530    0.7100 H         1 HTA1        0.0000
     10 C4          4.1630    2.6940    0.0450 C.3       1 HTA1        0.0000
     11 H4R         3.8800    3.1470    1.0210 H         1 HTA1        0.0000
     12 H4S         3.8050    3.3720   -0.7610 H         1 HTA1        0.0000
     13 C5          5.6920    2.5720   -0.0310 C.3       1 HTA1        0.0000
     14 H5R         5.9600    2.1220   -1.0140 H         1 HTA1        0.0000
     15 H5S         6.0270    1.8690    0.7650 H         1 HTA1        0.0000
     16 C6          6.4020    3.9280    0.1340 C.3       1 HTA1        0.0000
     17 H6R         6.0980    4.3660    1.1100 H         1 HTA1        0.0000
     18 H6S         6.0200    4.6130   -0.6550 H         1 HTA1        0.0000
     19 C7          7.9040    3.7830    0.0800 C.2       1 HTA1        0.0000
     20 H7R         8.3240    3.0880    0.8230 H         1 HTA1        0.0000
     21 C8          8.7400    4.4050   -0.7760 C.2       1 HTA1        0.0000
     22 H8R         9.8200    4.2010   -0.6980 H         1 HTA1        0.0000
     23 C9          8.3570    5.3870   -1.8580 C.3       1 HTA1        0.0000
     24 H9R         7.3650    5.1220   -2.2860 H         1 HTA1        0.0000
     25 H9S         9.0690    5.2830   -2.7050 H         1 HTA1        0.0000
     26 C10         8.3860    6.8150   -1.3620 C.2       1 HTA1        0.0000
     27 H10R        9.3120    7.0990   -0.8360 H         1 HTA1        0.0000
     28 C11         7.4200    7.7460   -1.4970 C.2       1 HTA1        0.0000
     29 H11R        7.6030    8.7470   -1.0720 H         1 HTA1        0.0000
     30 C12         6.0790    7.5660   -2.1710 C.3       1 HTA1        0.0000
     31 H12R        5.7470    6.5070   -2.1180 H         1 HTA1        0.0000
     32 H12S        6.1930    7.7830   -3.2550 H         1 HTA1        0.0000
     33 C13         5.0250    8.4950   -1.6090 C.2       1 HTA1        0.0000
     34 H13R        5.2180    9.5640   -1.7900 H         1 HTA1        0.0000
     35 C14         3.9000    8.1530   -0.9500 C.2       1 HTA1        0.0000
     36 H14R        3.2240    8.9540   -0.6120 H         1 HTA1        0.0000
     37 C15         3.4350    6.7610   -0.5990 C.3       1 HTA1        0.0000
     38 H15R        3.1610    6.7140    0.4790 H         1 HTA1        0.0000
     39 H15S        4.2340    6.0010   -0.7470 H         1 HTA1        0.0000
     40 C16         2.2150    6.3580   -1.4390 C.3       1 HTA1        0.0000
     41 H16R        2.4650    6.3590   -2.5220 H         1 HTA1        0.0000
     42 H16S        1.3650    7.0530   -1.2720 H         1 HTA1        0.0000
     43 H16T        1.8820    5.3330   -1.1660 H         1 HTA1        0.0000
@<TRIPOS>BOND
     1   32   30 1 
     2   25   23 1 
     3   41   40 1 
     4   24   23 1 
     5   30   31 1 
     6   30   33 1 
     7   30   28 1 
     8   23   26 1 
     9   23   21 1 
    10   34   33 1 
    11   33   35 2 
    12   28   26 2 
    13   28   29 1 
    14   40   42 1 
    15   40   43 1 
    16   40   37 1 
    17   26   27 1 
    18    8    7 1 
    19   14   13 1 
    20   35   36 1 
    21   35   37 1 
    22    6    4 1 
    23   21   22 1 
    24   21   19 2 
    25   12   10 1 
    26   39   37 1 
    27   18   16 1 
    28   37   38 1 
    29    2    3 ar
    30    7    4 1 
    31    7   10 1 
    32    7    9 1 
    33    3    4 1 
    34    3    1 ar
    35   13   10 1 
    36   13   16 1 
    37   13   15 1 
    38    4    5 1 
    39   10   11 1 
    40   19   16 1 
    41   19   20 1 
    42   16   17 1 
