@<TRIPOS>MOLECULE
C:\Users\Praveer\PycharmProjects\pdb_to_mol2_converter\data\pdb\htap.pdb
   44    43     0     0     0
SMALL
GASTEIGER

@<TRIPOS>ATOM
      1 H1          0.1550   -0.1610    0.0900 H         1 HTA1        0.0000
      2 O1          1.1050   -0.1130   -0.0060 O.3       1 HTA1        0.0000
      3 O2          0.6130    2.0660    0.2330 O.2       1 HTA1        0.0000
      4 C1          1.4620    1.2120    0.0720 C.2       1 HTA1        0.0000
      5 C2          2.9670    1.4180   -0.0660 C.3       1 HTA1        0.0000
      6 H2R         3.2850    1.0190   -1.0520 H         1 HTA1        0.0000
      7 H2S         3.4750    0.8360    0.7310 H         1 HTA1        0.0000
      8 C3          3.3610    2.9070    0.0440 C.3       1 HTA1        0.0000
      9 H3R         3.0290    3.3150    1.0260 H         1 HTA1        0.0000
     10 H3S         2.8440    3.4890   -0.7530 H         1 HTA1        0.0000
     11 C4          4.8740    3.1190   -0.0940 C.3       1 HTA1        0.0000
     12 H4R         5.2160    2.6880   -1.0620 H         1 HTA1        0.0000
     13 H4S         5.4010    2.5750    0.7230 H         1 HTA1        0.0000
     14 C5          5.2660    4.6030   -0.0440 C.3       1 HTA1        0.0000
     15 H5R         4.9760    5.0160    0.9490 H         1 HTA1        0.0000
     16 H5S         4.6850    5.1490   -0.8220 H         1 HTA1        0.0000
     17 C6          6.7710    4.8240   -0.2780 C.3       1 HTA1        0.0000
     18 H6R         7.0420    4.4040   -1.2720 H         1 HTA1        0.0000
     19 H6S         7.3310    4.2300    0.4790 H         1 HTA1        0.0000
     20 C7          7.1320    6.2890   -0.2230 C.2       1 HTA1        0.0000
     21 H7R         6.6210    6.9180   -0.9690 H         1 HTA1        0.0000
     22 C8          7.9960    6.8670    0.6340 C.2       1 HTA1        0.0000
     23 H8R         8.1600    7.9540    0.5640 H         1 HTA1        0.0000
     24 C9          8.7940    6.1730    1.7140 C.3       1 HTA1        0.0000
     25 H9R         8.1980    5.3470    2.1610 H         1 HTA1        0.0000
     26 H9S         8.9640    6.8880    2.5490 H         1 HTA1        0.0000
     27 C10        10.1290    5.6830    1.2020 C.2       1 HTA1        0.0000
     28 H10R       10.7020    6.4260    0.6240 H         1 HTA1        0.0000
     29 C11        10.6700    4.4610    1.3790 C.2       1 HTA1        0.0000
     30 H11R       11.6620    4.2660    0.9400 H         1 HTA1        0.0000
     31 C12        10.0500    3.3010    2.1250 C.3       1 HTA1        0.0000
     32 H12R        8.9420    3.3380    2.0560 H         1 HTA1        0.0000
     33 H12S       10.2800    3.4080    3.2080 H         1 HTA1        0.0000
     34 C13        10.5820    1.9670    1.6530 C.2       1 HTA1        0.0000
     35 H13R       11.6480    1.7970    1.8720 H         1 HTA1        0.0000
     36 C14         9.8970    0.9900    1.0250 C.2       1 HTA1        0.0000
     37 H14R       10.4290    0.0640    0.7560 H         1 HTA1        0.0000
     38 C15         8.4410    1.0080    0.6300 C.3       1 HTA1        0.0000
     39 H15R        8.3340    0.6930   -0.4320 H         1 HTA1        0.0000
     40 H15S        8.0010    2.0270    0.6960 H         1 HTA1        0.0000
     41 C16         7.6230    0.0600    1.5190 C.3       1 HTA1        0.0000
     42 H16R        7.6700    0.3810    2.5830 H         1 HTA1        0.0000
     43 H16S        8.0050   -0.9810    1.4490 H         1 HTA1        0.0000
     44 H16T        6.5570    0.0600    1.2050 H         1 HTA1        0.0000
@<TRIPOS>BOND
     1   18   17 1 
     2   12   11 1 
     3    6    5 1 
     4   21   20 1 
     5   16   14 1 
     6   10    8 1 
     7   39   38 1 
     8   17   20 1 
     9   17   14 1 
    10   17   19 1 
    11   20   22 2 
    12   11   14 1 
    13   11    8 1 
    14   11   13 1 
    15    5    8 1 
    16    5    4 1 
    17    5    7 1 
    18   14   15 1 
    19    2    4 1 
    20    2    1 1 
    21    8    9 1 
    22    4    3 2 
    23   23   22 1 
    24   28   27 1 
    25   38   40 1 
    26   38   36 1 
    27   38   41 1 
    28   22   24 1 
    29   37   36 1 
    30   30   29 1 
    31   36   34 2 
    32   27   29 2 
    33   27   24 1 
    34   44   41 1 
    35   29   31 1 
    36   43   41 1 
    37   41   42 1 
    38   34   35 1 
    39   34   31 1 
    40   24   25 1 
    41   24   26 1 
    42   32   31 1 
    43   31   33 1 
