@<TRIPOS>MOLECULE
C:\Users\Praveer\PycharmProjects\pdb_to_mol2_converter\data\pdb\hxe2.pdb
   18    17     0     0     0
SMALL
GASTEIGER

@<TRIPOS>ATOM
      1 C1         -0.0100   -0.0120   -0.0010 C.3       1 HXE1        0.0000
      2 H11        -0.4030   -0.5390    0.8960 H         1 HXE1        0.0000
      3 H12        -0.4020   -0.5400   -0.8980 H         1 HXE1        0.0000
      4 H13        -0.4460    1.0120   -0.0020 H         1 HXE1        0.0000
      5 C2          1.4980    0.0000   -0.0000 C.2       1 HXE1        0.0000
      6 H21         2.0050   -0.9780    0.0000 H         1 HXE1        0.0000
      7 C3          2.2400    1.1180   -0.0000 C.2       1 HXE1        0.0000
      8 H31         1.7420    2.1000   -0.0010 H         1 HXE1        0.0000
      9 C4          3.7480    1.1340    0.0000 C.3       1 HXE1        0.0000
     10 H41         4.1410    0.6020   -0.8960 H         1 HXE1        0.0000
     11 H42         4.1410    0.6030    0.8960 H         1 HXE1        0.0000
     12 C5          4.3230    2.5620   -0.0010 C.3       1 HXE1        0.0000
     13 H51         3.9550    3.1090    0.8980 H         1 HXE1        0.0000
     14 H52         3.9550    3.1090   -0.9000 H         1 HXE1        0.0000
     15 C6          5.8540    2.5920   -0.0010 C.3       1 HXE1        0.0000
     16 H61         6.2520    2.0780   -0.9020 H         1 HXE1        0.0000
     17 H62         6.2530    2.0780    0.9000 H         1 HXE1        0.0000
     18 H63         6.2260    3.6390   -0.0010 H         1 HXE1        0.0000
@<TRIPOS>BOND
     1   16   15 1 
     2   14   12 1 
     3    3    1 1 
     4   10    9 1 
     5    4    1 1 
     6    1    5 1 
     7    1    2 1 
     8    8    7 1 
     9   12   15 1 
    10   12    9 1 
    11   12   13 1 
    12   15   18 1 
    13   15   17 1 
    14    5    6 1 
    15    5    7 2 
    16    7    9 1 
    17    9   11 1 
