@<TRIPOS>MOLECULE
C:\Users\Praveer\PycharmProjects\pdb_to_mol2_converter\data\pdb\ibut.pdb
   14    13     0     0     0
SMALL
GASTEIGER

@<TRIPOS>ATOM
      1 CT          1.5910    0.0040    0.0130 C.3       1 IBU1        0.0000
      2 HT          1.9360   -0.5310   -0.9060 H         1 IBU1        0.0000
      3 C1          2.1390    1.4370   -0.0380 C.3       1 IBU1        0.0000
      4 H11         1.7640    1.9650   -0.9400 H         1 IBU1        0.0000
      5 H12         3.2490    1.4280   -0.0700 H         1 IBU1        0.0000
      6 H13         1.8170    2.0040    0.8620 H         1 IBU1        0.0000
      7 C2          0.0560    0.0060    0.0150 C.3       1 IBU1        0.0000
      8 H21        -0.3330   -1.0340    0.0210 H         1 IBU1        0.0000
      9 H22        -0.3320    0.5240   -0.8870 H         1 IBU1        0.0000
     10 H23        -0.3260    0.5310    0.9160 H         1 IBU1        0.0000
     11 C3          2.1390   -0.7470    1.2340 C.3       1 IBU1        0.0000
     12 H31         3.2490   -0.7700    1.2100 H         1 IBU1        0.0000
     13 H32         1.7630   -1.7920    1.2480 H         1 IBU1        0.0000
     14 H33         1.8170   -0.2430    2.1710 H         1 IBU1        0.0000
@<TRIPOS>BOND
     1    4    3 1 
     2    2    1 1 
     3    9    7 1 
     4    5    3 1 
     5    3    1 1 
     6    3    6 1 
     7    1    7 1 
     8    1   11 1 
     9    7    8 1 
    10    7   10 1 
    11   12   11 1 
    12   11   13 1 
    13   11   14 1 
