@<TRIPOS>MOLECULE
C:\Users\Praveer\PycharmProjects\pdb_to_mol2_converter\data\pdb\idam.pdb
   21    22     0     0     0
SMALL
GASTEIGER

@<TRIPOS>ATOM
      1 N9          1.3540   -0.0040    0.0000 N.ar      1 IDA1        0.0000
      2 H9          1.9080   -0.8480    0.0140 H         1 IDA1        0.0000
      3 C8          1.8350    1.2970   -0.0170 C.ar      1 IDA1        0.0000
      4 H8          2.8880    1.5560   -0.0230 H         1 IDA1        0.0000
      5 C7          0.7570    2.1450   -0.0310 C.ar      1 IDA1        0.0000
      6 C5         -0.4250    1.3240    0.0020 C.ar      1 IDA1        0.0000
      7 C6         -1.7820    1.6340    0.0220 C.ar      1 IDA1        0.0000
      8 H6         -2.0820    2.6720    0.0010 H         1 IDA1        0.0000
      9 C1         -2.7300    0.6010    0.0450 C.ar      1 IDA1        0.0000
     10 H1         -3.7860    0.8380    0.0540 H         1 IDA1        0.0000
     11 C2         -2.3120   -0.7370    0.0500 C.ar      1 IDA1        0.0000
     12 H2         -3.0480   -1.5300    0.0630 H         1 IDA1        0.0000
     13 C3         -0.9450   -1.0460    0.0340 C.ar      1 IDA1        0.0000
     14 H3         -0.6090   -2.0710    0.0370 H         1 IDA1        0.0000
     15 C4         -0.0180   -0.0180    0.0120 C.ar      1 IDA1        0.0000
     16 C10         0.7670    3.6550    0.0010 C.3       1 IDA1        0.0000
     17 H101        1.8160    4.0270   -0.0450 H         1 IDA1        0.0000
     18 H102        0.3270    3.9930    0.9680 H         1 IDA1        0.0000
     19 N11        -0.0190    4.2010   -1.1340 N.3       1 IDA1        0.0000
     20 H111        0.2940    3.8420   -2.0310 H         1 IDA1        0.0000
     21 H112        0.0180    5.2130   -1.2060 H         1 IDA1        0.0000
@<TRIPOS>BOND
     1   20   19 1 
     2   21   19 1 
     3   19   16 1 
     4   17   16 1 
     5    5    3 ar
     6    5   16 1 
     7    5    6 ar
     8    4    3 1 
     9    3    1 ar
    10    1   15 ar
    11    1    2 1 
    12    8    7 1 
    13   16   18 1 
    14    6   15 ar
    15    6    7 ar
    16   15   13 ar
    17    7    9 ar
    18   13   14 1 
    19   13   11 ar
    20    9   11 ar
    21    9   10 1 
    22   11   12 1 
