@<TRIPOS>MOLECULE
C:\Users\Praveer\PycharmProjects\pdb_to_mol2_converter\data\pdb\imdp.pdb
   14    14     0     0     0
SMALL
GASTEIGER

@<TRIPOS>ATOM
      1 N1         -0.1160    1.6720    0.2780 N.3       1 IMD1        0.0000
      2 H1         -1.0040    2.0780   -0.0440 H         1 IMD1        0.0000
      3 C2          0.0130    0.2740    0.0560 C.3       1 IMD1        0.0000
      4 H21        -0.4760   -0.0710   -0.9070 H         1 IMD1        0.0000
      5 H22        -0.5070   -0.3500    0.8470 H         1 IMD1        0.0000
      6 N3          1.5100    0.0200    0.0100 N.4       1 IMD1        0.0000
      7 H31         1.7640   -0.5630   -0.7770 H         1 IMD1        0.0000
      8 H32         1.7840   -0.4850    0.8440 H         1 IMD1        0.0000
      9 C4          2.2120    1.3960   -0.0300 C.3       1 IMD1        0.0000
     10 H41         3.0500    1.5010   -0.7730 H         1 IMD1        0.0000
     11 H42         2.5760    1.7590    0.9740 H         1 IMD1        0.0000
     12 C5          1.0420    2.2830   -0.4120 C.3       1 IMD1        0.0000
     13 H51         1.1780    3.3350   -0.1030 H         1 IMD1        0.0000
     14 H52         0.8780    2.2860   -1.5060 H         1 IMD1        0.0000
@<TRIPOS>BOND
     1   14   12 1 
     2    4    3 1 
     3    7    6 1 
     4   10    9 1 
     5   12   13 1 
     6   12    9 1 
     7   12    1 1 
     8    2    1 1 
     9    9    6 1 
    10    9   11 1 
    11    6    3 1 
    12    6    8 1 
    13    3    1 1 
    14    3    5 1 
