@<TRIPOS>MOLECULE
C:\Users\Praveer\PycharmProjects\pdb_to_mol2_converter\data\pdb\imim.pdb
   10    10     0     0     0
SMALL
GASTEIGER

@<TRIPOS>ATOM
      1 CG          1.5270   -0.0440   -0.0030 C.2       1 IMI1        0.0000
      2 HG          0.4450   -0.0910    0.0960 H         1 IMI1        0.0000
      3 CD2         2.4150   -1.0550   -0.1510 C.2       1 IMI1        0.0000
      4 HD2         2.2330   -2.1250   -0.2020 H         1 IMI1        0.0000
      5 ND1         2.2500    1.1250    0.0030 N.pl3     1 IMI1        0.0000
      6 HD1         1.8540    2.0430    0.0990 H         1 IMI1        0.0000
      7 NE2         3.6620   -0.4810   -0.2320 N.pl3     1 IMI1        0.0000
      8 HE2         4.5210   -0.9890   -0.3450 H         1 IMI1        0.0000
      9 CE1         3.5360    0.8360   -0.1370 C.3       1 IMI1        0.0000
     10 HE1         4.3450    1.5510   -0.1670 H         1 IMI1        0.0000
@<TRIPOS>BOND
     1    8    7 1 
     2    7    3 1 
     3    7    9 1 
     4    4    3 1 
     5   10    9 1 
     6    3    1 2 
     7    9    5 1 
     8    1    5 1 
     9    1    2 1 
    10    5    6 1 
