@<TRIPOS>MOLECULE
C:\Users\Praveer\PycharmProjects\pdb_to_mol2_converter\data\pdb\inda.pdb
   15    16     0     0     0
SMALL
GASTEIGER

@<TRIPOS>ATOM
      1 N1          1.6790    1.2910   -0.0000 N.ar      1 IND1        0.0000
      2 H1          2.6470    1.5760    0.0000 H         1 IND1        0.0000
      3 N2          1.3390   -0.0260    0.0000 N.ar      1 IND1        0.0000
      4 C3          0.0110   -0.0210    0.0000 C.ar      1 IND1        0.0000
      5 H3         -0.5760   -0.9320    0.0000 H         1 IND1        0.0000
      6 C4         -0.5130    1.3100   -0.0000 C.ar      1 IND1        0.0000
      7 C5         -1.7920    1.8690   -0.0000 C.ar      1 IND1        0.0000
      8 H5         -2.6670    1.2290   -0.0000 H         1 IND1        0.0000
      9 C6         -1.9250    3.2640   -0.0000 C.ar      1 IND1        0.0000
     10 H6         -2.9140    3.7140   -0.0000 H         1 IND1        0.0000
     11 C7         -0.7950    4.0920   -0.0000 C.ar      1 IND1        0.0000
     12 H7         -0.9110    5.1690   -0.0000 H         1 IND1        0.0000
     13 C8          0.4860    3.5250   -0.0000 C.ar      1 IND1        0.0000
     14 H8          1.3650    4.1500   -0.0000 H         1 IND1        0.0000
     15 C9          0.6100    2.1450   -0.0000 C.ar      1 IND1        0.0000
@<TRIPOS>BOND
     1    1    2 1 
     2    1    3 ar
     3    1   15 ar
     4    3    4 ar
     5    4    5 1 
     6    4    6 ar
     7    6    7 ar
     8    6   15 ar
     9    7    8 1 
    10    7    9 ar
    11    9   10 1 
    12    9   11 ar
    13   11   12 1 
    14   11   13 ar
    15   13   14 1 
    16   13   15 ar
