@<TRIPOS>MOLECULE
C:\Users\Praveer\PycharmProjects\pdb_to_mol2_converter\data\pdb\inde.pdb
   17    18     0     0     0
SMALL
GASTEIGER

@<TRIPOS>ATOM
      1 C1         -0.5300    1.4180   -0.0000 C.3       1 IND1        0.0000
      2 H11        -1.1560    1.6400   -0.8780 H         1 IND1        0.0000
      3 H12        -1.1560    1.6400    0.8780 H         1 IND1        0.0000
      4 C2          0.7470    2.2260    0.0000 C.2       1 IND1        0.0000
      5 H2          0.7750    3.3080   -0.0000 H         1 IND1        0.0000
      6 C3          1.8310    1.3870    0.0000 C.2       1 IND1        0.0000
      7 H3          2.8700    1.6850    0.0000 H         1 IND1        0.0000
      8 C4          1.3780    0.0190    0.0000 C.ar      1 IND1        0.0000
      9 C5          2.0810   -1.1760    0.0000 C.ar      1 IND1        0.0000
     10 H5          3.1590   -1.1510    0.0000 H         1 IND1        0.0000
     11 C6          1.3890   -2.3960    0.0000 C.ar      1 IND1        0.0000
     12 H6          1.9360   -3.3300    0.0000 H         1 IND1        0.0000
     13 C7         -0.0110   -2.4090    0.0000 C.ar      1 IND1        0.0000
     14 H7         -0.5370   -3.3550    0.0000 H         1 IND1        0.0000
     15 C8         -0.7280   -1.2060    0.0000 C.ar      1 IND1        0.0000
     16 H8         -1.8080   -1.2040    0.0000 H         1 IND1        0.0000
     17 C9         -0.0290   -0.0040    0.0000 C.ar      1 IND1        0.0000
@<TRIPOS>BOND
     1    2    1 1 
     2    1    4 1 
     3    1   17 1 
     4    1    3 1 
     5    4    5 1 
     6    4    6 2 
     7    6    7 1 
     8    6    8 1 
     9    8    9 ar
    10    8   17 ar
    11    9   10 1 
    12    9   11 ar
    13   11   12 1 
    14   11   13 ar
    15   13   14 1 
    16   13   15 ar
    17   15   16 1 
    18   15   17 ar
