@<TRIPOS>MOLECULE
C:\Users\Praveer\PycharmProjects\pdb_to_mol2_converter\data\pdb\indi.pdb
   18    19     0     0     0
SMALL
GASTEIGER

@<TRIPOS>ATOM
      1 N1         -0.0480    0.3290    0.0270 N.pl3     1 IND1        0.0000
      2 H1         -0.6140   -0.4560   -0.2880 H         1 IND1        0.0000
      3 C2          1.4110    0.0720    0.0210 C.3       1 IND1        0.0000
      4 H21         1.6930   -0.4940   -0.8840 H         1 IND1        0.0000
      5 H22         1.7050   -0.5310    0.8960 H         1 IND1        0.0000
      6 C3          2.0170    1.4650    0.0410 C.3       1 IND1        0.0000
      7 H31         3.0350    1.5080   -0.3680 H         1 IND1        0.0000
      8 H32         2.0870    1.8110    1.0860 H         1 IND1        0.0000
      9 C4          0.9800    2.2570   -0.7230 C.ar      1 IND1        0.0000
     10 C5          1.0490    3.5020   -1.3330 C.ar      1 IND1        0.0000
     11 H5          1.9840    4.0420   -1.3510 H         1 IND1        0.0000
     12 C6         -0.1100    4.0340   -1.9140 C.ar      1 IND1        0.0000
     13 H6         -0.0800    5.0050   -2.3960 H         1 IND1        0.0000
     14 C7         -1.3180    3.3240   -1.8680 C.ar      1 IND1        0.0000
     15 H7         -2.2090    3.7510   -2.3090 H         1 IND1        0.0000
     16 C8         -1.3760    2.0710   -1.2400 C.ar      1 IND1        0.0000
     17 H8         -2.2990    1.5160   -1.1860 H         1 IND1        0.0000
     18 C9         -0.2300    1.5270   -0.6990 C.ar      1 IND1        0.0000
@<TRIPOS>BOND
     1   13   12 1 
     2   15   14 1 
     3   12   14 ar
     4   12   10 ar
     5   14   16 ar
     6   11   10 1 
     7   10    9 ar
     8   16   17 1 
     9   16   18 ar
    10    4    3 1 
    11    9   18 ar
    12    9    6 1 
    13   18    1 1 
    14    7    6 1 
    15    2    1 1 
    16    3    1 1 
    17    3    6 1 
    18    3    5 1 
    19    6    8 1 
