@<TRIPOS>MOLECULE
C:\Users\Praveer\PycharmProjects\pdb_to_mol2_converter\data\pdb\indo.pdb
   16    17     0     0     0
SMALL
GASTEIGER

@<TRIPOS>ATOM
      1 HG         -0.6900   -0.8740    0.0000 H         1 IND1        0.0000
      2 CG          0.0120   -0.0550   -0.0000 C.ar      1 IND1        0.0000
      3 CD2        -0.3210    1.3380   -0.0000 C.ar      1 IND1        0.0000
      4 CD1         1.3750   -0.1590   -0.0000 C.ar      1 IND1        0.0000
      5 HD1         1.9850   -1.0580    0.0000 H         1 IND1        0.0000
      6 NE1         1.8870    1.1300   -0.0000 N.ar      1 IND1        0.0000
      7 HE1         2.8620    1.3890   -0.0000 H         1 IND1        0.0000
      8 CE2         0.8790    2.0620   -0.0000 C.ar      1 IND1        0.0000
      9 CE3        -1.5390    2.0080   -0.0000 C.ar      1 IND1        0.0000
     10 HE3        -2.4640    1.4510   -0.0000 H         1 IND1        0.0000
     11 CZ2         0.8770    3.4460   -0.0000 C.ar      1 IND1        0.0000
     12 HZ2         1.8090    3.9890   -0.0000 H         1 IND1        0.0000
     13 CZ3        -1.5510    3.4100   -0.0000 C.ar      1 IND1        0.0000
     14 HZ3        -2.4920    3.9420   -0.0000 H         1 IND1        0.0000
     15 CH2        -0.3480    4.1270   -0.0000 C.ar      1 IND1        0.0000
     16 HH2        -0.3670    5.2080   -0.0000 H         1 IND1        0.0000
@<TRIPOS>BOND
     1    1    2 1 
     2    2    3 ar
     3    2    4 ar
     4    3    8 ar
     5    3    9 ar
     6    4    5 1 
     7    4    6 ar
     8    6    7 1 
     9    6    8 ar
    10    8   11 ar
    11    9   10 1 
    12    9   13 ar
    13   11   12 1 
    14   11   15 ar
    15   13   14 1 
    16   13   15 ar
    17   15   16 1 
