@<TRIPOS>MOLECULE
C:\Users\Praveer\PycharmProjects\pdb_to_mol2_converter\data\pdb\indz.pdb
   16    17     0     0     0
SMALL
GASTEIGER

@<TRIPOS>ATOM
      1 C1          1.4460   -0.0420   -0.0000 C.ar      1 IND1        0.0000
      2 H1          2.1170   -0.8880   -0.0000 H         1 IND1        0.0000
      3 C2          1.7940    1.2830   -0.0000 C.ar      1 IND1        0.0000
      4 H2          2.8050    1.6640    0.0000 H         1 IND1        0.0000
      5 C3          0.6680    2.0640    0.0000 C.ar      1 IND1        0.0000
      6 H3          0.5770    3.1430    0.0000 H         1 IND1        0.0000
      7 N4         -0.4360    1.2550   -0.0000 N.ar      1 IND1        0.0000
      8 C5         -1.8170    1.4920   -0.0000 C.ar      1 IND1        0.0000
      9 H5         -2.1690    2.5130    0.0000 H         1 IND1        0.0000
     10 C6         -2.7260    0.4270   -0.0000 C.ar      1 IND1        0.0000
     11 H6         -3.7880    0.6250   -0.0000 H         1 IND1        0.0000
     12 C7         -2.2620   -0.8960   -0.0000 C.ar      1 IND1        0.0000
     13 H7         -2.9640   -1.7170   -0.0000 H         1 IND1        0.0000
     14 C8         -0.8810   -1.1460   -0.0000 C.ar      1 IND1        0.0000
     15 H8         -0.5060   -2.1580   -0.0000 H         1 IND1        0.0000
     16 C9          0.0230   -0.0930   -0.0000 C.ar      1 IND1        0.0000
@<TRIPOS>BOND
     1    1    2 1 
     2    1    3 ar
     3    1   16 ar
     4    3    4 1 
     5    3    5 ar
     6    5    6 1 
     7    5    7 ar
     8    7    8 ar
     9    7   16 ar
    10    8    9 1 
    11    8   10 ar
    12   10   11 1 
    13   10   12 ar
    14   12   13 1 
    15   12   14 ar
    16   14   15 1 
    17   14   16 ar
