@<TRIPOS>MOLECULE
C:\Users\Praveer\PycharmProjects\pdb_to_mol2_converter\data\pdb\ini1.pdb
   24    24     0     0     0
SMALL
GASTEIGER

@<TRIPOS>ATOM
      1 C1         -0.0390   -0.0530   -0.0360 C.3       1 INI1        0.0000
      2 H1         -0.4240    0.4830    0.8670 H         1 INI1        0.0000
      3 O1         -0.5400   -1.3870    0.0250 O.3       1 INI1        0.0000
      4 HO1        -1.4820   -1.3360   -0.1910 H         1 INI1        0.0000
      5 C2          1.4750   -0.0270    0.0270 C.3       1 INI1        0.0000
      6 H2          1.7870   -0.4580    1.0100 H         1 INI1        0.0000
      7 O2          2.0400   -0.8510   -0.9920 O.3       1 INI1        0.0000
      8 HO2         1.5710   -1.6970   -0.9540 H         1 INI1        0.0000
      9 C3          2.0140    1.3870   -0.0600 C.3       1 INI1        0.0000
     10 H3          1.6630    1.9370    0.8480 H         1 INI1        0.0000
     11 O3          3.4400    1.3980   -0.0220 O.3       1 INI1        0.0000
     12 HO3         3.7350    0.6290   -0.5320 H         1 INI1        0.0000
     13 C4          1.4860    2.1320   -1.2720 C.3       1 INI1        0.0000
     14 H4          1.8940    1.6250   -2.1820 H         1 INI1        0.0000
     15 O4          1.9580    3.4790   -1.2880 O.3       1 INI1        0.0000
     16 HO4         2.8890    3.4540   -1.0230 H         1 INI1        0.0000
     17 C5         -0.0270    2.0840   -1.3630 C.3       1 INI1        0.0000
     18 H5         -0.4310    2.6650   -0.4950 H         1 INI1        0.0000
     19 O5         -0.4900    2.7290   -2.5480 O.3       1 INI1        0.0000
     20 HO5         0.0170    3.5490   -2.6320 H         1 INI1        0.0000
     21 C6         -0.5700    0.6730   -1.2570 C.3       1 INI1        0.0000
     22 H6         -0.2290    0.1120   -2.1630 H         1 INI1        0.0000
     23 O6         -1.9970    0.6750   -1.2730 O.3       1 INI1        0.0000
     24 HO6        -2.2620    1.2680   -1.9910 H         1 INI1        0.0000
@<TRIPOS>BOND
     1   20   19 1 
     2   19   17 1 
     3   14   13 1 
     4   22   21 1 
     5   24   23 1 
     6   17   13 1 
     7   17   21 1 
     8   17   18 1 
     9   15   13 1 
    10   15   16 1 
    11   23   21 1 
    12   13    9 1 
    13   21    1 1 
    14    7    8 1 
    15    7    5 1 
    16   12   11 1 
    17    4    3 1 
    18    9   11 1 
    19    9    5 1 
    20    9   10 1 
    21    1    3 1 
    22    1    5 1 
    23    1    2 1 
    24    5    6 1 
