@<TRIPOS>MOLECULE
C:\Users\Praveer\PycharmProjects\pdb_to_mol2_converter\data\pdb\ini2.pdb
   24    24     0     0     0
SMALL
GASTEIGER

@<TRIPOS>ATOM
      1 C1          0.0200   -0.0070   -0.0220 C.3       1 INI1        0.0000
      2 H1         -0.3030    0.4670    0.9360 H         1 INI1        0.0000
      3 O1         -0.4710   -1.3420    0.0160 O.3       1 INI1        0.0000
      4 HO1        -0.1830   -1.7900   -0.7890 H         1 INI1        0.0000
      5 C5         -0.1630    2.2400   -1.0710 C.3       1 INI1        0.0000
      6 H5         -0.5710    2.6480   -0.1130 H         1 INI1        0.0000
      7 O5         -0.7250    3.0180   -2.1260 O.3       1 INI1        0.0000
      8 HO5        -0.3370    3.9020   -2.0610 H         1 INI1        0.0000
      9 C2          1.5350    0.0440   -0.0690 C.3       1 INI1        0.0000
     10 H2          1.9320   -0.4900    0.8300 H         1 INI1        0.0000
     11 O2          2.0520   -0.6360   -1.2150 O.3       1 INI1        0.0000
     12 HO2         1.4250   -0.4820   -1.9440 H         1 INI1        0.0000
     13 C3          2.0320    1.4790   -0.0140 C.3       1 INI1        0.0000
     14 H3          1.7740    1.8680    1.0030 H         1 INI1        0.0000
     15 O3          3.4510    1.5470   -0.1280 O.3       1 INI1        0.0000
     16 HO3         3.7220    0.8060   -0.6890 H         1 INI1        0.0000
     17 C4          1.3490    2.3980   -1.0180 C.3       1 INI1        0.0000
     18 H4          1.7380    2.1150   -2.0300 H         1 INI1        0.0000
     19 O4          1.7150    3.7580   -0.7930 O.3       1 INI1        0.0000
     20 HO4         2.6730    3.7770   -0.6640 H         1 INI1        0.0000
     21 C6         -0.5940    0.7890   -1.1580 C.3       1 INI1        0.0000
     22 H6         -1.7060    0.7530   -1.0420 H         1 INI1        0.0000
     23 O6         -0.2840    0.2350   -2.4400 O.3       1 INI1        0.0000
     24 HO6        -0.7090    0.8070   -3.0950 H         1 INI1        0.0000
@<TRIPOS>BOND
     1   24   23 1 
     2   23   21 1 
     3    7    8 1 
     4    7    5 1 
     5   18   17 1 
     6   12   11 1 
     7   11    9 1 
     8   21    5 1 
     9   21   22 1 
    10   21    1 1 
    11    5   17 1 
    12    5    6 1 
    13   17   19 1 
    14   17   13 1 
    15   19   20 1 
    16    4    3 1 
    17   16   15 1 
    18   15   13 1 
    19    9    1 1 
    20    9   13 1 
    21    9   10 1 
    22    1    3 1 
    23    1    2 1 
    24   13   14 1 
