@<TRIPOS>MOLECULE
C:\Users\Praveer\PycharmProjects\pdb_to_mol2_converter\data\pdb\ini3.pdb
   24    24     0     0     0
SMALL
GASTEIGER

@<TRIPOS>ATOM
      1 C1          0.0670    0.0130    0.0560 C.3       1 INI1        0.0000
      2 H1         -0.2710   -1.0460    0.1750 H         1 INI1        0.0000
      3 O1         -0.4590    0.4840   -1.1810 O.3       1 INI1        0.0000
      4 HO1        -0.0210   -0.0130   -1.8850 H         1 INI1        0.0000
      5 C5          0.0310    2.2480    1.1700 C.3       1 INI1        0.0000
      6 H5         -0.2820    2.7080    0.2010 H         1 INI1        0.0000
      7 O5         -0.5390    3.0580    2.1940 O.3       1 INI1        0.0000
      8 HO5        -0.3080    2.6660    3.0440 H         1 INI1        0.0000
      9 C2          1.5880    0.0360    0.0330 C.3       1 INI1        0.0000
     10 H2          1.9360   -0.4790    0.9620 H         1 INI1        0.0000
     11 O2          2.1060   -0.7010   -1.0810 O.3       1 INI1        0.0000
     12 HO2         2.6960   -1.3950   -0.7650 H         1 INI1        0.0000
     13 C3          2.1380    1.4560    0.0730 C.3       1 INI1        0.0000
     14 H3          1.8250    1.9600   -0.8750 H         1 INI1        0.0000
     15 O3          3.5670    1.4710    0.1070 O.3       1 INI1        0.0000
     16 HO3         3.8940    1.1980   -0.7580 H         1 INI1        0.0000
     17 C4          1.5500    2.2640    1.2170 C.3       1 INI1        0.0000
     18 H4          1.8810    3.3250    1.0970 H         1 INI1        0.0000
     19 O4          2.0540    1.8030    2.4760 O.3       1 INI1        0.0000
     20 HO4         3.0180    1.8700    2.4270 H         1 INI1        0.0000
     21 C6         -0.5010    0.8270    1.1950 C.3       1 INI1        0.0000
     22 H6         -1.6130    0.8620    1.0870 H         1 INI1        0.0000
     23 O6         -0.2240    0.1850    2.4380 O.3       1 INI1        0.0000
     24 HO6         0.6220    0.5410    2.7610 H         1 INI1        0.0000
@<TRIPOS>BOND
     1    4    3 1 
     2    3    1 1 
     3   11   12 1 
     4   11    9 1 
     5   14   13 1 
     6   16   15 1 
     7    9    1 1 
     8    9   13 1 
     9    9   10 1 
    10    1    2 1 
    11    1   21 1 
    12   13   15 1 
    13   13   17 1 
    14    6    5 1 
    15   22   21 1 
    16   18   17 1 
    17    5   21 1 
    18    5   17 1 
    19    5    7 1 
    20   21   23 1 
    21   17   19 1 
    22    7    8 1 
    23   20   19 1 
    24   23   24 1 
