@<TRIPOS>MOLECULE
C:\Users\Praveer\PycharmProjects\pdb_to_mol2_converter\data\pdb\ini4.pdb
   24    24     0     0     0
SMALL
GASTEIGER

@<TRIPOS>ATOM
      1 C1          0.0180   -0.1150    0.0570 C.3       1 INI1        0.0000
      2 H1         -0.2410   -1.2010    0.1120 H         1 INI1        0.0000
      3 O1         -0.6290    0.4030   -1.0990 O.3       1 INI1        0.0000
      4 HO1        -0.1710    0.0270   -1.8640 H         1 INI1        0.0000
      5 C5         -0.0490    2.0220    1.3760 C.3       1 INI1        0.0000
      6 H5         -0.5150    2.5710    0.5200 H         1 INI1        0.0000
      7 O5         -0.5130    2.6530    2.5710 O.3       1 INI1        0.0000
      8 HO5        -0.3610    2.0350    3.2970 H         1 INI1        0.0000
      9 C2          1.5240    0.0040   -0.0660 C.3       1 INI1        0.0000
     10 H2          1.9780   -0.5330    0.8030 H         1 INI1        0.0000
     11 O2          2.0020   -0.6310   -1.2510 O.3       1 INI1        0.0000
     12 HO2         2.9330   -0.3820   -1.3330 H         1 INI1        0.0000
     13 C3          1.9840    1.4480   -0.0010 C.3       1 INI1        0.0000
     14 H3          1.5730    1.9770   -0.8970 H         1 INI1        0.0000
     15 O3          3.4070    1.5430   -0.0740 O.3       1 INI1        0.0000
     16 HO3         3.6280    2.4610    0.1370 H         1 INI1        0.0000
     17 C4          1.4560    2.1620    1.2270 C.3       1 INI1        0.0000
     18 H4          1.9250    1.6770    2.1210 H         1 INI1        0.0000
     19 O4          1.8470    3.5340    1.2380 O.3       1 INI1        0.0000
     20 HO4         1.2560    3.9890    1.8540 H         1 INI1        0.0000
     21 C6         -0.5140    0.5790    1.2870 C.3       1 INI1        0.0000
     22 H6         -1.6320    0.5860    1.2390 H         1 INI1        0.0000
     23 O6         -0.1440   -0.1530    2.4570 O.3       1 INI1        0.0000
     24 HO6        -0.8680   -0.7280    2.7300 H         1 INI1        0.0000
@<TRIPOS>BOND
     1    4    3 1 
     2   12   11 1 
     3   11    9 1 
     4    3    1 1 
     5   14   13 1 
     6   15   13 1 
     7   15   16 1 
     8    9   13 1 
     9    9    1 1 
    10    9   10 1 
    11   13   17 1 
    12    1    2 1 
    13    1   21 1 
    14    6    5 1 
    15   17   19 1 
    16   17    5 1 
    17   17   18 1 
    18   19   20 1 
    19   22   21 1 
    20   21    5 1 
    21   21   23 1 
    22    5    7 1 
    23   23   24 1 
    24    7    8 1 
