@<TRIPOS>MOLECULE
C:\Users\Praveer\PycharmProjects\pdb_to_mol2_converter\data\pdb\ini5.pdb
   24    24     0     0     0
SMALL
GASTEIGER

@<TRIPOS>ATOM
      1 C1          0.0110   -0.0190   -0.0940 C.3       1 INI1        0.0000
      2 H1         -0.2990    0.4140   -1.0790 H         1 INI1        0.0000
      3 O1         -0.4780   -1.3590   -0.0600 O.3       1 INI1        0.0000
      4 HO1         0.1540   -1.8690    0.4670 H         1 INI1        0.0000
      5 C5         -0.0620    2.2400    1.0390 C.3       1 INI1        0.0000
      6 H5         -0.3480    2.7560    0.0890 H         1 INI1        0.0000
      7 O5         -0.6380    2.9820    2.1130 O.3       1 INI1        0.0000
      8 HO5        -1.5950    2.8470    2.0540 H         1 INI1        0.0000
      9 C2          1.5300    0.0180   -0.0540 C.3       1 INI1        0.0000
     10 H2          1.9070   -0.4790   -0.9820 H         1 INI1        0.0000
     11 O2          2.0410   -0.7380    1.0430 O.3       1 INI1        0.0000
     12 HO2         2.1030   -0.1370    1.8060 H         1 INI1        0.0000
     13 C3          2.0740    1.4260    0.0040 C.3       1 INI1        0.0000
     14 H3          3.1800    1.3800    0.1690 H         1 INI1        0.0000
     15 O3          1.8650    2.0790   -1.2440 O.3       1 INI1        0.0000
     16 HO3         2.7090    2.2770   -1.6670 H         1 INI1        0.0000
     17 C4          1.4520    2.2360    1.1190 C.3       1 INI1        0.0000
     18 H4          1.8060    3.2930    1.0330 H         1 INI1        0.0000
     19 O4          1.8930    1.7500    2.3860 O.3       1 INI1        0.0000
     20 HO4         1.4150    2.2660    3.0520 H         1 INI1        0.0000
     21 C6         -0.6350    0.8360    0.9830 C.3       1 INI1        0.0000
     22 H6         -0.4190    0.3480    1.9660 H         1 INI1        0.0000
     23 O6         -2.0540    0.8580    0.8330 O.3       1 INI1        0.0000
     24 HO6        -2.3200   -0.0380    0.5860 H         1 INI1        0.0000
@<TRIPOS>BOND
     1   16   15 1 
     2   15   13 1 
     3    2    1 1 
     4   10    9 1 
     5    1    3 1 
     6    1    9 1 
     7    1   21 1 
     8    3    4 1 
     9    9   13 1 
    10    9   11 1 
    11   13   14 1 
    12   13   17 1 
    13    6    5 1 
    14   24   23 1 
    15   23   21 1 
    16   21    5 1 
    17   21   22 1 
    18   18   17 1 
    19    5   17 1 
    20    5    7 1 
    21   11   12 1 
    22   17   19 1 
    23    8    7 1 
    24   19   20 1 
