@<TRIPOS>MOLECULE
C:\Users\Praveer\PycharmProjects\pdb_to_mol2_converter\data\pdb\iodb.pdb
   12    12     0     0     0
SMALL
GASTEIGER

@<TRIPOS>ATOM
      1 C1          1.3880   -0.0220   -0.0000 C.ar      1 IOD1        0.0000
      2 H1          1.9240   -0.9600   -0.0000 H         1 IOD1        0.0000
      3 C2          2.0900    1.1910   -0.0000 C.ar      1 IOD1        0.0000
      4 H2          3.1700    1.1900   -0.0000 H         1 IOD1        0.0000
      5 C3          1.3890    2.4060    0.0000 C.ar      1 IOD1        0.0000
      6 H3          1.9290    3.3420    0.0000 H         1 IOD1        0.0000
      7 C4         -0.0130    2.4050   -0.0000 C.ar      1 IOD1        0.0000
      8 H4         -0.5550    3.3400   -0.0000 H         1 IOD1        0.0000
      9 C5         -0.7130    1.1910   -0.0000 C.ar      1 IOD1        0.0000
     10 H5         -1.7930    1.1860   -0.0000 H         1 IOD1        0.0000
     11 C6         -0.0130   -0.0220   -0.0000 C.ar      1 IOD1        0.0000
     12 I6         -1.0700   -1.8530    0.0000 I         1 IOD1        0.0000
@<TRIPOS>BOND
     1    1    2 1 
     2    1    3 ar
     3    1   11 ar
     4    3    4 1 
     5    3    5 ar
     6    5    6 1 
     7    5    7 ar
     8    7    8 1 
     9    7    9 ar
    10    9   10 1 
    11    9   11 ar
    12   11   12 1 
