@<TRIPOS>MOLECULE
C:\Users\Praveer\PycharmProjects\pdb_to_mol2_converter\data\pdb\ip_2.pdb
   15    14     0     0     0
SMALL
GASTEIGER

@<TRIPOS>ATOM
      1 P1          2.2250    1.4030    0.0060 P.3       1 IP_1        0.0000
      2 O1          1.4160    0.0350   -0.0400 O.3       1 IP_1        0.0000
      3 O2          1.7770    2.0840    1.2430 O.3       1 IP_1        0.0000
      4 O3          3.6500    1.0050    0.0430 O.3       1 IP_1        0.0000
      5 O4          1.8550    2.1330   -1.2290 O.2       1 IP_1        0.0000
      6 C1         -0.0060    0.0220   -0.0210 C.3       1 IP_1        0.0000
      7 H11        -0.4100    1.0030    0.3390 H         1 IP_1        0.0000
      8 C2         -0.4600   -1.0610    0.9430 C.3       1 IP_1        0.0000
      9 H21        -0.0650   -0.8370    1.9580 H         1 IP_1        0.0000
     10 H22        -0.0640   -2.0480    0.6210 H         1 IP_1        0.0000
     11 H23        -1.5660   -1.1050    0.9860 H         1 IP_1        0.0000
     12 C3         -0.5090   -0.2260   -1.4330 C.3       1 IP_1        0.0000
     13 H31        -0.1100   -1.1870   -1.8190 H         1 IP_1        0.0000
     14 H32        -0.1460    0.5930   -2.0960 H         1 IP_1        0.0000
     15 H33        -1.6160   -0.2450   -1.4590 H         1 IP_1        0.0000
@<TRIPOS>BOND
     1   14   12 1 
     2   13   12 1 
     3   15   12 1 
     4   12    6 1 
     5    5    1 2 
     6    2    6 1 
     7    2    1 1 
     8    6    7 1 
     9    6    8 1 
    10    1    4 1 
    11    1    3 1 
    12   10    8 1 
    13    8   11 1 
    14    8    9 1 
