@<TRIPOS>MOLECULE
C:\Users\Praveer\PycharmProjects\pdb_to_mol2_converter\data\pdb\ipaa.pdb
   18    17     0     0     0
SMALL
GASTEIGER

@<TRIPOS>ATOM
      1 CL          1.9620   -1.2790   -0.0010 C.3       1 IPA1        0.0000
      2 HL1         1.2360   -2.1220    0.0000 H         1 IPA1        0.0000
      3 HL2         2.5980   -1.3550    0.9070 H         1 IPA1        0.0000
      4 HL3         2.5970   -1.3570   -0.9080 H         1 IPA1        0.0000
      5 C           1.2210    0.0030   -0.0010 C.2       1 IPA1        0.0000
      6 O          -0.0040    0.0060    0.0040 O.2       1 IPA1        0.0000
      7 N           1.9810    1.1080   -0.0070 N.am      1 IPA1        0.0000
      8 H           2.9660    1.0080   -0.0110 H         1 IPA1        0.0000
      9 CR          1.4870    2.4520   -0.0090 C.3       1 IPA1        0.0000
     10 HR          2.3960    3.1030   -0.0150 H         1 IPA1        0.0000
     11 C21         0.7120    2.7910    1.2720 C.3       1 IPA1        0.0000
     12 H211        1.3260    2.5620    2.1680 H         1 IPA1        0.0000
     13 H212       -0.2230    2.1930    1.3230 H         1 IPA1        0.0000
     14 H213        0.4400    3.8670    1.2870 H         1 IPA1        0.0000
     15 C22         0.7000    2.7850   -1.2830 C.3       1 IPA1        0.0000
     16 H221       -0.2360    2.1860   -1.3220 H         1 IPA1        0.0000
     17 H222        1.3040    2.5510   -2.1840 H         1 IPA1        0.0000
     18 H223        0.4270    3.8600   -1.3010 H         1 IPA1        0.0000
@<TRIPOS>BOND
     1   17   15 1 
     2   16   15 1 
     3   18   15 1 
     4   15    9 1 
     5    4    1 1 
     6   10    9 1 
     7    8    7 1 
     8    9    7 1 
     9    9   11 1 
    10    7    5 am
    11    1    5 1 
    12    1    2 1 
    13    1    3 1 
    14    5    6 2 
    15   11   14 1 
    16   11   13 1 
    17   11   12 1 
