@<TRIPOS>MOLECULE
C:\Users\Praveer\PycharmProjects\pdb_to_mol2_converter\data\pdb\ippc.pdb
  130   129     0     0     0
SMALL
GASTEIGER

@<TRIPOS>ATOM
      1 N           7.4150    2.0580    0.8920 N.4       1 IPP1        0.0000
      2 C13         8.0460    3.4080    1.0570 C.3       1 IPP1        0.0000
      3 H13A        7.3340    4.1840    0.7880 H         1 IPP1        0.0000
      4 H13B        8.9060    3.5110    0.4080 H         1 IPP1        0.0000
      5 H13C        8.3610    3.5750    2.0780 H         1 IPP1        0.0000
      6 C14         6.9930    1.9120   -0.5430 C.3       1 IPP1        0.0000
      7 H14A        7.8150    1.9330   -1.2360 H         1 IPP1        0.0000
      8 H14B        6.2690    2.6850   -0.8080 H         1 IPP1        0.0000
      9 H14C        6.4210    0.9900   -0.6910 H         1 IPP1        0.0000
     10 C15         8.3890    0.9770    1.2410 C.3       1 IPP1        0.0000
     11 H15A        8.7030    1.0520    2.2740 H         1 IPP1        0.0000
     12 H15B        9.2620    1.0190    0.6040 H         1 IPP1        0.0000
     13 H15C        7.9200    0.0070    1.1060 H         1 IPP1        0.0000
     14 C12         6.1720    1.9610    1.7650 C.3       1 IPP1        0.0000
     15 H12A        5.4540    2.7160    1.4230 H         1 IPP1        0.0000
     16 H12B        6.3880    2.2040    2.7940 H         1 IPP1        0.0000
     17 C11         5.3990    0.6270    1.7180 C.3       1 IPP1        0.0000
     18 H11A        5.4850    0.1270    2.7090 H         1 IPP1        0.0000
     19 H11B        5.8010   -0.0860    0.9630 H         1 IPP1        0.0000
     20 P           3.6300    1.5200    0.0530 P.3       1 IPP1        0.0000
     21 O13         4.2850    0.7060   -0.9970 O.2       1 IPP1        0.0000
     22 O14         3.9980    2.9530    0.0950 O.3       1 IPP1        0.0000
     23 O11         2.0590    1.3290    0.0110 O.3       1 IPP1        0.0000
     24 O12         4.0260    0.9010    1.4620 O.3       1 IPP1        0.0000
     25 C1          1.5620   -0.0140    0.0100 C.3       1 IPP1        0.0000
     26 HA          1.9020   -0.5760    0.9120 H         1 IPP1        0.0000
     27 HB          1.9020   -0.5630   -0.9010 H         1 IPP1        0.0000
     28 C2          0.0180   -0.0150    0.0040 C.3       1 IPP1        0.0000
     29 HS         -0.3160    0.4900    0.9410 H         1 IPP1        0.0000
     30 O21        -0.4040   -1.3900   -0.0050 O.3       1 IPP1        0.0000
     31 C21        -1.6950   -1.5990    0.1400 C.2       1 IPP1        0.0000
     32 O22        -2.5330   -0.7700    0.4470 O.2       1 IPP1        0.0000
     33 C22        -1.9820   -3.0750   -0.1300 C.3       1 IPP1        0.0000
     34 H2R        -2.9910   -3.3050    0.2670 H         1 IPP1        0.0000
     35 H2S        -1.2320   -3.6720    0.4300 H         1 IPP1        0.0000
     36 C3         -0.5470    0.7900   -1.2070 C.3       1 IPP1        0.0000
     37 HX         -0.0800    1.8030   -1.1630 H         1 IPP1        0.0000
     38 HY         -1.6460    0.9150   -1.0990 H         1 IPP1        0.0000
     39 O31        -0.2320    0.1260   -2.4500 O.3       1 IPP1        0.0000
     40 C31        -0.4830    0.8590   -3.5260 C.2       1 IPP1        0.0000
     41 O32        -0.9780    1.9700   -3.5320 O.2       1 IPP1        0.0000
     42 C32        -0.0790    0.0730   -4.7710 C.3       1 IPP1        0.0000
     43 H2X         0.8130   -0.5350   -4.5160 H         1 IPP1        0.0000
     44 H2Y         0.2030    0.8050   -5.5550 H         1 IPP1        0.0000
     45 C23        -1.9000   -3.4110   -1.6370 C.3       1 IPP1        0.0000
     46 H3R        -0.9860   -2.9450   -2.0770 H         1 IPP1        0.0000
     47 H3S        -2.7820   -2.9780   -2.1620 H         1 IPP1        0.0000
     48 C24        -1.8280   -4.9210   -1.9170 C.3       1 IPP1        0.0000
     49 H4R        -0.8740   -5.3150   -1.4990 H         1 IPP1        0.0000
     50 H4S        -1.8010   -5.0770   -3.0190 H         1 IPP1        0.0000
     51 C25        -3.0020   -5.7190   -1.3290 C.3       1 IPP1        0.0000
     52 H5R        -3.9550   -5.2280   -1.6340 H         1 IPP1        0.0000
     53 H5S        -2.9500   -5.6910   -0.2180 H         1 IPP1        0.0000
     54 C26        -3.0410   -7.1870   -1.7880 C.3       1 IPP1        0.0000
     55 H6R        -3.1690   -7.2180   -2.8930 H         1 IPP1        0.0000
     56 H6S        -3.9320   -7.6770   -1.3340 H         1 IPP1        0.0000
     57 C27        -1.7900   -7.9950   -1.4100 C.3       1 IPP1        0.0000
     58 H7R        -1.6210   -7.9190   -0.3130 H         1 IPP1        0.0000
     59 H7S        -0.9020   -7.5620   -1.9220 H         1 IPP1        0.0000
     60 C28        -1.9100   -9.4750   -1.8000 C.3       1 IPP1        0.0000
     61 H8R        -2.1300   -9.5440   -2.8890 H         1 IPP1        0.0000
     62 H8S        -2.7670   -9.9280   -1.2530 H         1 IPP1        0.0000
     63 C29        -0.6370  -10.2780   -1.5000 C.3       1 IPP1        0.0000
     64 H9R        -0.4070  -10.2130   -0.4130 H         1 IPP1        0.0000
     65 H9S         0.2160   -9.8260   -2.0540 H         1 IPP1        0.0000
     66 C210       -0.7690  -11.7540   -1.9010 C.3       1 IPP1        0.0000
     67 H10R       -1.0420  -11.8120   -2.9790 H         1 IPP1        0.0000
     68 H10S       -1.5950  -12.2190   -1.3180 H         1 IPP1        0.0000
     69 C211        0.5220  -12.5550   -1.6720 C.3       1 IPP1        0.0000
     70 H11R        0.7970  -12.4900   -0.5970 H         1 IPP1        0.0000
     71 H11S        1.3420  -12.0940   -2.2670 H         1 IPP1        0.0000
     72 C212        0.3740  -14.0290   -2.0760 C.3       1 IPP1        0.0000
     73 H12R       -0.0770  -14.0610   -3.0950 H         1 IPP1        0.0000
     74 H12S       -0.3410  -14.5260   -1.3820 H         1 IPP1        0.0000
     75 C213        1.6850  -14.8390   -2.1220 C.3       1 IPP1        0.0000
     76 H13R        2.4000  -14.3730   -2.8340 H         1 IPP1        0.0000
     77 H13S        1.4240  -15.8430   -2.5300 H         1 IPP1        0.0000
     78 C214        2.3870  -15.0600   -0.7630 C.3       1 IPP1        0.0000
     79 H14R        1.6020  -15.0830    0.0300 H         1 IPP1        0.0000
     80 C216        3.1100  -16.4190   -0.7430 C.3       1 IPP1        0.0000
     81 H16R        3.8960  -16.4480   -1.5270 H         1 IPP1        0.0000
     82 H16S        2.3920  -17.2450   -0.9310 H         1 IPP1        0.0000
     83 H16T        3.5890  -16.5880    0.2440 H         1 IPP1        0.0000
     84 C215        3.3940  -13.9450   -0.4300 C.3       1 IPP1        0.0000
     85 H15R        2.9020  -12.9530   -0.3930 H         1 IPP1        0.0000
     86 H15S        4.1950  -13.9100   -1.1980 H         1 IPP1        0.0000
     87 H15T        3.8640  -14.1370    0.5580 H         1 IPP1        0.0000
     88 C33        -1.2340   -0.8250   -5.2700 C.3       1 IPP1        0.0000
     89 H3X        -2.0950   -0.1800   -5.5610 H         1 IPP1        0.0000
     90 H3Y        -1.5760   -1.4910   -4.4440 H         1 IPP1        0.0000
     91 C34        -0.8530   -1.7060   -6.4700 C.3       1 IPP1        0.0000
     92 H4X        -0.4800   -1.0670   -7.3010 H         1 IPP1        0.0000
     93 H4Y        -1.7780   -2.2140   -6.8270 H         1 IPP1        0.0000
     94 C35         0.2010   -2.7710   -6.1300 C.3       1 IPP1        0.0000
     95 H5X        -0.1380   -3.3470   -5.2390 H         1 IPP1        0.0000
     96 H5Y         1.1540   -2.2650   -5.8570 H         1 IPP1        0.0000
     97 C36         0.4900   -3.7570   -7.2750 C.3       1 IPP1        0.0000
     98 H6X         1.3360   -4.4110   -6.9610 H         1 IPP1        0.0000
     99 H6Y         0.8170   -3.1980   -8.1790 H         1 IPP1        0.0000
    100 C37        -0.7040   -4.6550   -7.6300 C.3       1 IPP1        0.0000
    101 H7X        -1.5080   -4.0440   -8.0960 H         1 IPP1        0.0000
    102 H7Y        -1.1130   -5.0950   -6.6920 H         1 IPP1        0.0000
    103 C38        -0.3240   -5.7980   -8.5810 C.3       1 IPP1        0.0000
    104 H8X         0.4860   -6.3990   -8.1090 H         1 IPP1        0.0000
    105 H8Y         0.0750   -5.3770   -9.5300 H         1 IPP1        0.0000
    106 C39        -1.5090   -6.7240   -8.8900 C.3       1 IPP1        0.0000
    107 H9X        -2.2890   -6.1540   -9.4430 H         1 IPP1        0.0000
    108 H9Y        -1.9560   -7.0660   -7.9300 H         1 IPP1        0.0000
    109 C310       -1.0980   -7.9570   -9.7060 C.3       1 IPP1        0.0000
    110 H10X       -0.3030   -8.5040   -9.1490 H         1 IPP1        0.0000
    111 H10Y       -0.6670   -7.6330  -10.6790 H         1 IPP1        0.0000
    112 C311       -2.2700   -8.9140   -9.9600 C.3       1 IPP1        0.0000
    113 H11X       -3.0370   -8.4010  -10.5820 H         1 IPP1        0.0000
    114 H11Y       -2.7420   -9.1720   -8.9850 H         1 IPP1        0.0000
    115 C312       -1.8320  -10.2120  -10.6530 C.3       1 IPP1        0.0000
    116 H12X       -1.0540  -10.7000  -10.0260 H         1 IPP1        0.0000
    117 H12Y       -1.3720   -9.9660  -11.6360 H         1 IPP1        0.0000
    118 C313       -3.0000  -11.1860  -10.8700 C.3       1 IPP1        0.0000
    119 H13X       -3.7730  -10.6760  -11.4890 H         1 IPP1        0.0000
    120 H13Y       -3.4630  -11.4250   -9.8860 H         1 IPP1        0.0000
    121 C314       -2.5970  -12.4960  -11.5660 C.3       1 IPP1        0.0000
    122 H14X       -2.1140  -12.2620  -12.5410 H         1 IPP1        0.0000
    123 H14Y       -3.5220  -13.0790  -11.7820 H         1 IPP1        0.0000
    124 C315       -1.6550  -13.3770  -10.7330 C.3       1 IPP1        0.0000
    125 H15X       -2.1220  -13.5560   -9.7370 H         1 IPP1        0.0000
    126 H15Y       -0.7000  -12.8320  -10.5600 H         1 IPP1        0.0000
    127 C316       -1.3440  -14.7240  -11.3910 C.3       1 IPP1        0.0000
    128 H16X       -0.8580  -14.5710  -12.3780 H         1 IPP1        0.0000
    129 H16Y       -2.2780  -15.3050  -11.5470 H         1 IPP1        0.0000
    130 H16Z       -0.6610  -15.3220  -10.7510 H         1 IPP1        0.0000
@<TRIPOS>BOND
     1  122  121 1 
     2  128  127 1 
     3  123  121 1 
     4  117  115 1 
     5  121  118 1 
     6  121  124 1 
     7  129  127 1 
     8  119  118 1 
     9  127  130 1 
    10  127  124 1 
    11  118  115 1 
    12  118  120 1 
    13  124  126 1 
    14  124  125 1 
    15  111  109 1 
    16  115  116 1 
    17  115  112 1 
    18  113  112 1 
    19  112  109 1 
    20  112  114 1 
    21  109  110 1 
    22  109  106 1 
    23  105  103 1 
    24  107  106 1 
    25  106  103 1 
    26  106  108 1 
    27  103  104 1 
    28  103  100 1 
    29   99   97 1 
    30  101  100 1 
    31  100   97 1 
    32  100  102 1 
    33   92   91 1 
    34   97   98 1 
    35   97   94 1 
    36   93   91 1 
    37   91   94 1 
    38   91   88 1 
    39   94   96 1 
    40   94   95 1 
    41   89   88 1 
    42   44   42 1 
    43   88   42 1 
    44   88   90 1 
    45   42   43 1 
    46   42   40 1 
    47   41   40 2 
    48   40   39 1 
    49   73   72 1 
    50   50   48 1 
    51   67   66 1 
    52   55   54 1 
    53   61   60 1 
    54   76   75 1 
    55   77   75 1 
    56   39   36 1 
    57   71   69 1 
    58   47   45 1 
    59   75   72 1 
    60   75   78 1 
    61   46   45 1 
    62   72   69 1 
    63   72   74 1 
    64   65   63 1 
    65   59   57 1 
    66   48   45 1 
    67   48   49 1 
    68   48   51 1 
    69   66   69 1 
    70   66   63 1 
    71   66   68 1 
    72   60   63 1 
    73   60   57 1 
    74   60   62 1 
    75   54   57 1 
    76   54   56 1 
    77   54   51 1 
    78   69   70 1 
    79   45   33 1 
    80   52   51 1 
    81   81   80 1 
    82   63   64 1 
    83   57   58 1 
    84   51   53 1 
    85    7    6 1 
    86   36   37 1 
    87   36   38 1 
    88   36   28 1 
    89   86   84 1 
    90   21   20 2 
    91   82   80 1 
    92   27   25 1 
    93    8    6 1 
    94   78   80 1 
    95   78   84 1 
    96   78   79 1 
    97   80   83 1 
    98    9    6 1 
    99    6    1 1 
   100   84   85 1 
   101   84   87 1 
   102   33   31 1 
   103   33   34 1 
   104   33   35 1 
   105   30   28 1 
   106   30   31 1 
   107   28   25 1 
   108   28   29 1 
   109   25   23 1 
   110   25   26 1 
   111   23   20 1 
   112   20   22 1 
   113   20   24 1 
   114   31   32 2 
   115    4    2 1 
   116   12   10 1 
   117    3    2 1 
   118    1    2 1 
   119    1   10 1 
   120    1   14 1 
   121   19   17 1 
   122    2    5 1 
   123   13   10 1 
   124   10   11 1 
   125   15   14 1 
   126   24   17 1 
   127   17   14 1 
   128   17   18 1 
   129   14   16 1 
