@<TRIPOS>MOLECULE
C:\Users\Praveer\PycharmProjects\pdb_to_mol2_converter\data\pdb\iqin.pdb
   17    18     0     0     0
SMALL
GASTEIGER

@<TRIPOS>ATOM
      1 C1          2.0530    1.2360    0.0000 C.ar      1 IQI1        0.0000
      2 H1          3.1350    1.2820    0.0000 H         1 IQI1        0.0000
      3 N2          1.3870    2.3910    0.0000 N.ar      1 IQI1        0.0000
      4 C3          0.0560    2.4070   -0.0000 C.ar      1 IQI1        0.0000
      5 H3         -0.4330    3.3740   -0.0000 H         1 IQI1        0.0000
      6 C4         -0.7030    1.2270   -0.0000 C.ar      1 IQI1        0.0000
      7 H4         -1.7800    1.2770   -0.0000 H         1 IQI1        0.0000
      8 C5         -0.0250   -0.0010   -0.0000 C.ar      1 IQI1        0.0000
      9 C6         -0.7170   -1.2200   -0.0000 C.ar      1 IQI1        0.0000
     10 H6         -1.7980   -1.2370   -0.0000 H         1 IQI1        0.0000
     11 C7         -0.0100   -2.4310   -0.0000 C.ar      1 IQI1        0.0000
     12 H7         -0.5470   -3.3690   -0.0000 H         1 IQI1        0.0000
     13 C8          1.3920   -2.4290    0.0000 C.ar      1 IQI1        0.0000
     14 H8          1.9300   -3.3660    0.0000 H         1 IQI1        0.0000
     15 C9          2.0980   -1.2180    0.0000 C.ar      1 IQI1        0.0000
     16 H9          3.1780   -1.2330    0.0000 H         1 IQI1        0.0000
     17 C10         1.3980   -0.0050    0.0000 C.ar      1 IQI1        0.0000
@<TRIPOS>BOND
     1    1    2 1 
     2    1    3 ar
     3    1   17 ar
     4    3    4 ar
     5    4    5 1 
     6    4    6 ar
     7    6    7 1 
     8    6    8 ar
     9    8    9 ar
    10    8   17 ar
    11    9   10 1 
    12    9   11 ar
    13   11   12 1 
    14   11   13 ar
    15   13   14 1 
    16   13   15 ar
    17   15   16 1 
    18   15   17 ar
