@<TRIPOS>MOLECULE
C:\Users\Praveer\PycharmProjects\pdb_to_mol2_converter\data\pdb\isoi.pdb
   16    17     0     0     0
SMALL
GASTEIGER

@<TRIPOS>ATOM
      1 HG         -0.6080   -0.9040    0.0000 H         1 ISO1        0.0000
      2 CG          0.0080   -0.0150   -0.0000 C.ar      1 ISO1        0.0000
      3 CD2        -0.4360    1.3470   -0.0000 C.ar      1 ISO1        0.0000
      4 ND1         1.3940   -0.0170   -0.0000 N.ar      1 ISO1        0.0000
      5 HD1         1.9810   -0.8440    0.0000 H         1 ISO1        0.0000
      6 CE1         1.8490    1.2920   -0.0000 C.ar      1 ISO1        0.0000
      7 HE1         2.8910    1.5800   -0.0000 H         1 ISO1        0.0000
      8 CE2         0.7100    2.1600   -0.0000 C.ar      1 ISO1        0.0000
      9 CE3        -1.7030    1.9150   -0.0000 C.ar      1 ISO1        0.0000
     10 HE3        -2.5750    1.2790   -0.0000 H         1 ISO1        0.0000
     11 CZ2         0.5910    3.5430   -0.0000 C.ar      1 ISO1        0.0000
     12 HZ2         1.4790    4.1580   -0.0000 H         1 ISO1        0.0000
     13 CZ3        -1.8280    3.3110   -0.0000 C.ar      1 ISO1        0.0000
     14 HZ3        -2.8110    3.7680   -0.0000 H         1 ISO1        0.0000
     15 CH2        -0.6860    4.1220   -0.0000 C.ar      1 ISO1        0.0000
     16 HH2        -0.7930    5.2000   -0.0000 H         1 ISO1        0.0000
@<TRIPOS>BOND
     1    1    2 1 
     2    2    3 ar
     3    2    4 ar
     4    3    8 ar
     5    3    9 ar
     6    4    5 1 
     7    4    6 ar
     8    6    7 1 
     9    6    8 ar
    10    8   11 ar
    11    9   10 1 
    12    9   13 ar
    13   11   12 1 
    14   11   15 ar
    15   13   14 1 
    16   13   15 ar
    17   15   16 1 
