@<TRIPOS>MOLECULE
C:\Users\Praveer\PycharmProjects\pdb_to_mol2_converter\data\pdb\isot.pdb
    8     8     0     0     0
SMALL
GASTEIGER

@<TRIPOS>ATOM
      1 C1          1.7650   -0.0680    0.0000 C.ar      1 ISO1        0.0000
      2 H1          2.3540   -0.9750    0.0000 H         1 ISO1        0.0000
      3 C2          2.1320    1.2550   -0.0000 C.ar      1 ISO1        0.0000
      4 H2          3.1500    1.6120   -0.0000 H         1 ISO1        0.0000
      5 C3          1.0020    2.1340   -0.0000 C.ar      1 ISO1        0.0000
      6 H3          1.0620    3.2160   -0.0000 H         1 ISO1        0.0000
      7 N4         -0.1710    1.5220   -0.0000 N.ar      1 ISO1        0.0000
      8 S5          0.0650   -0.1260    0.0000 S.2       1 ISO1        0.0000
@<TRIPOS>BOND
     1    1    2 1 
     2    1    3 ar
     3    1    8 ar
     4    3    4 1 
     5    3    5 ar
     6    5    6 1 
     7    5    7 ar
     8    7    8 ar
