@<TRIPOS>MOLECULE
C:\Users\Praveer\PycharmProjects\pdb_to_mol2_converter\data\pdb\isox.pdb
    8     8     0     0     0
SMALL
GASTEIGER

@<TRIPOS>ATOM
      1 C1          0.0120   -0.0090    0.0000 C.ar      1 ISO1        0.0000
      2 H1         -0.7160   -0.8120    0.0000 H         1 ISO1        0.0000
      3 C2          1.3630   -0.0140   -0.0000 C.ar      1 ISO1        0.0000
      4 H2          2.0080   -0.8760   -0.0000 H         1 ISO1        0.0000
      5 C3          1.7260    1.3410   -0.0000 C.ar      1 ISO1        0.0000
      6 H3          2.7360    1.7350   -0.0000 H         1 ISO1        0.0000
      7 N4          0.6660    2.1330   -0.0000 N.ar      1 ISO1        0.0000
      8 O5         -0.4410    1.2750    0.0000 O.2       1 ISO1        0.0000
@<TRIPOS>BOND
     1    1    2 1 
     2    1    3 ar
     3    1    8 ar
     4    3    4 1 
     5    3    5 ar
     6    5    6 1 
     7    5    7 ar
     8    7    8 ar
