@<TRIPOS>MOLECULE
C:\Users\Praveer\PycharmProjects\pdb_to_mol2_converter\data\pdb\kplipa.pdb
  350   351     0     0     0
SMALL
GASTEIGER

@<TRIPOS>ATOM
      1 HB6S       -7.9580    2.3470    0.9010 H         1 KPL1        0.0000
      2 OB6        -6.8500    0.8070    1.7730 O.3       1 KPL1        0.0000
      3 HOB6       -6.0940    0.2610    1.5130 H         1 KPL1        0.0000
      4 CB6        -7.0920    1.6810    0.6710 C.3       1 KPL1        0.0000
      5 HB6R       -7.3650    1.0820   -0.2310 H         1 KPL1        0.0000
      6 CB5        -5.8780    2.5290    0.3440 C.3       1 KPL1        0.0000
      7 OB5        -4.7250    1.6750    0.2410 O.3       1 KPL1        0.0000
      8 HB5        -5.7230    3.2520    1.1810 H         1 KPL1        0.0000
      9 CB1        -3.5310    2.4380    0.0750 C.3       1 KPL1        0.0000
     10 HB1        -3.3660    3.1240    0.9390 H         1 KPL1        0.0000
     11 OA6        -2.4090    1.6170   -0.0950 O.3       1 KPL1        0.0000
     12 CA6        -2.0960    0.8140    1.0430 C.3       1 KPL1        0.0000
     13 HA6R       -2.4870   -0.2170    0.8850 H         1 KPL1        0.0000
     14 HA6S       -2.5440    1.2230    1.9740 H         1 KPL1        0.0000
     15 CB4        -6.0320    3.2820   -0.9620 C.3       1 KPL1        0.0000
     16 HB4        -6.1700    2.5190   -1.7700 H         1 KPL1        0.0000
     17 OB4        -7.1640    4.1270   -0.7910 O.3       1 KPL1        0.0000
     18 PB         -8.4030    4.1910   -1.8870 P.3       1 KPL1        0.0000
     19 OPB4       -8.3740    5.6240   -2.4030 O.3       1 KPL1        0.0000
     20 OPB3       -9.6440    3.8420   -1.0770 O.3       1 KPL1        0.0000
     21 OPB2       -8.0750    3.1730   -2.9700 O.2       1 KPL1        0.0000
     22 CB3        -4.8040    4.1050   -1.2600 C.3       1 KPL1        0.0000
     23 OB3        -4.9200    4.6770   -2.5610 O.3       1 KPL1        0.0000
     24 HB3        -4.6860    4.8760   -0.4590 H         1 KPL1        0.0000
     25 C71        -5.4830    5.8980   -2.6140 C.2       1 KPL1        0.0000
     26 O71        -5.2370    6.7780   -1.7870 O.2       1 KPL1        0.0000
     27 C72        -5.7360    6.1850   -4.0830 C.3       1 KPL1        0.0000
     28 H72R       -6.7540    5.7890   -4.3030 H         1 KPL1        0.0000
     29 H72S       -5.0040    5.6360   -4.7070 H         1 KPL1        0.0000
     30 CB2        -3.5710    3.2320   -1.2100 C.3       1 KPL1        0.0000
     31 HB2        -3.6580    2.4930   -2.0490 H         1 KPL1        0.0000
     32 NB2        -2.3370    3.9930   -1.3440 N.am      1 KPL1        0.0000
     33 HNB2       -1.9970    4.4010   -0.5090 H         1 KPL1        0.0000
     34 CA4         0.0650    2.1310    1.2610 C.3       1 KPL1        0.0000
     35 HA4        -0.2720    2.6990    0.3660 H         1 KPL1        0.0000
     36 OA4        -0.4040    2.8590    2.3940 O.3       1 KPL1        0.0000
     37 HOA4       -0.2710    3.7910    2.1770 H         1 KPL1        0.0000
     38 CA5        -0.5900    0.7620    1.1620 C.3       1 KPL1        0.0000
     39 HA5        -0.3240    0.1540    2.0560 H         1 KPL1        0.0000
     40 OA5        -0.1250    0.0960   -0.0240 O.3       1 KPL1        0.0000
     41 CA1         1.2850   -0.1510   -0.0340 C.3       1 KPL1        0.0000
     42 HA1         1.5180   -0.6210   -1.0260 H         1 KPL1        0.0000
     43 OA1         1.6140   -1.0240    1.0310 O.3       1 KPL1        0.0000
     44 OPA2        2.6810   -3.0210    2.1120 O.3       1 KPL1        0.0000
     45 OPA3        2.4740   -2.9030   -0.4300 O.2       1 KPL1        0.0000
     46 OPA4        4.0720   -1.3350    0.7610 O.3       1 KPL1        0.0000
     47 PA          2.7930   -2.1550    0.8540 P.3       1 KPL1        0.0000
     48 CA3         1.5850    1.9850    1.2280 C.3       1 KPL1        0.0000
     49 HA3         1.8840    1.3580    2.1030 H         1 KPL1        0.0000
     50 OA3         2.4280    3.1350    1.2740 O.3       1 KPL1        0.0000
     51 C31         2.0520    4.3560    1.0280 C.2       1 KPL1        0.0000
     52 O31         0.9080    4.7870    0.9660 O.2       1 KPL1        0.0000
     53 C32         3.2930    5.2030    1.2590 C.3       1 KPL1        0.0000
     54 H32R        4.0440    4.9240    0.4910 H         1 KPL1        0.0000
     55 H32S        3.7020    4.9410    2.2580 H         1 KPL1        0.0000
     56 CA2         1.9690    1.2000   -0.0110 C.3       1 KPL1        0.0000
     57 HA2         1.5260    1.7660   -0.8730 H         1 KPL1        0.0000
     58 NA2         3.3810    1.0550   -0.2820 N.am      1 KPL1        0.0000
     59 HNA2        3.7300    0.1520    0.0520 H         1 KPL1        0.0000
     60 C73        -5.6940    7.6800   -4.4210 C.3       1 KPL1        0.0000
     61 H73R       -6.4470    8.2220   -3.7950 H         1 KPL1        0.0000
     62 O73        -5.9750    7.7140   -5.8150 O.3       1 KPL1        0.0000
     63 C81        -7.1620    8.1110   -6.2020 C.2       1 KPL1        0.0000
     64 O81        -7.9180    8.8600   -5.5980 O.2       1 KPL1        0.0000
     65 C82        -7.3200    7.7790   -7.6910 C.3       1 KPL1        0.0000
     66 H82R       -7.8920    8.6200   -8.1360 H         1 KPL1        0.0000
     67 H82S       -7.9230    6.8510   -7.7550 H         1 KPL1        0.0000
     68 C83        -6.0020    7.5920   -8.4860 C.3       1 KPL1        0.0000
     69 H83R       -5.7990    6.5080   -8.6310 H         1 KPL1        0.0000
     70 H83S       -5.1370    8.0160   -7.9330 H         1 KPL1        0.0000
     71 C84        -6.0700    8.3020   -9.8400 C.3       1 KPL1        0.0000
     72 H84R       -6.2080    9.3900   -9.6440 H         1 KPL1        0.0000
     73 H84S       -6.9560    7.9540  -10.4120 H         1 KPL1        0.0000
     74 C85        -4.8110    8.1190  -10.6910 C.3       1 KPL1        0.0000
     75 H85R       -4.9790    7.3190  -11.4450 H         1 KPL1        0.0000
     76 H85S       -3.9600    7.8090  -10.0450 H         1 KPL1        0.0000
     77 C86        -4.4320    9.4160  -11.3990 C.3       1 KPL1        0.0000
     78 H86R       -4.3060   10.2280  -10.6440 H         1 KPL1        0.0000
     79 H86S       -5.2600    9.7160  -12.0820 H         1 KPL1        0.0000
     80 C87        -3.1360    9.2980  -12.1950 C.3       1 KPL1        0.0000
     81 H87R       -3.1600    8.4140  -12.8720 H         1 KPL1        0.0000
     82 H87S       -2.2850    9.1590  -11.4890 H         1 KPL1        0.0000
     83 C88        -2.9260   10.5740  -13.0060 C.3       1 KPL1        0.0000
     84 H88R       -3.2880   11.4340  -12.3960 H         1 KPL1        0.0000
     85 H88S       -3.5570   10.5280  -13.9210 H         1 KPL1        0.0000
     86 C89        -1.4610   10.8200  -13.3630 C.3       1 KPL1        0.0000
     87 H89R       -0.8920   11.0180  -12.4260 H         1 KPL1        0.0000
     88 H89S       -1.4000   11.7320  -13.9970 H         1 KPL1        0.0000
     89 C810       -0.8080    9.6430  -14.0950 C.3       1 KPL1        0.0000
     90 H810       -1.4700    9.3250  -14.9310 H         1 KPL1        0.0000
     91 H810       -0.7030    8.7810  -13.4000 H         1 KPL1        0.0000
     92 C811        0.5660   10.0300  -14.6510 C.3       1 KPL1        0.0000
     93 H811        1.2000   10.4290  -13.8280 H         1 KPL1        0.0000
     94 H811        0.4110   10.8500  -15.3900 H         1 KPL1        0.0000
     95 C812        1.2960    8.8700  -15.3390 C.3       1 KPL1        0.0000
     96 H812        0.5910    8.3590  -16.0330 H         1 KPL1        0.0000
     97 H812        1.6170    8.1290  -14.5730 H         1 KPL1        0.0000
     98 C813        2.5100    9.3420  -16.1510 C.3       1 KPL1        0.0000
     99 H813        3.2560    9.7940  -15.4590 H         1 KPL1        0.0000
    100 H813        2.1730   10.1470  -16.8440 H         1 KPL1        0.0000
    101 C814        3.1710    8.2300  -16.9730 C.3       1 KPL1        0.0000
    102 H814        2.4510    7.8080  -17.7080 H         1 KPL1        0.0000
    103 H814        3.5170    7.4070  -16.3130 H         1 KPL1        0.0000
    104 H814        4.0490    8.6200  -17.5320 H         1 KPL1        0.0000
    105 C74        -4.3010    8.3400   -4.2600 C.3       1 KPL1        0.0000
    106 H74R       -3.5640    7.7560   -4.8530 H         1 KPL1        0.0000
    107 H74S       -3.9920    8.2850   -3.1960 H         1 KPL1        0.0000
    108 C75        -4.2760    9.8240   -4.6980 C.3       1 KPL1        0.0000
    109 H75R       -3.7550   10.4430   -3.9370 H         1 KPL1        0.0000
    110 H75S       -5.3310   10.1800   -4.7390 H         1 KPL1        0.0000
    111 C76        -3.6160   10.0550   -6.0670 C.3       1 KPL1        0.0000
    112 H76R       -3.8970    9.2040   -6.7230 H         1 KPL1        0.0000
    113 H76S       -2.5120   10.0170   -5.9630 H         1 KPL1        0.0000
    114 C77        -4.0640   11.3610   -6.7570 C.3       1 KPL1        0.0000
    115 H77R       -4.7150   11.9490   -6.0730 H         1 KPL1        0.0000
    116 H77S       -4.6870   11.0720   -7.6340 H         1 KPL1        0.0000
    117 C78        -2.9130   12.2530   -7.2500 C.3       1 KPL1        0.0000
    118 H78R       -2.1830   11.5960   -7.7730 H         1 KPL1        0.0000
    119 H78S       -2.3860   12.7210   -6.3910 H         1 KPL1        0.0000
    120 C79        -3.3550   13.3340   -8.2580 C.3       1 KPL1        0.0000
    121 H79R       -3.8040   14.2030   -7.7310 H         1 KPL1        0.0000
    122 H79S       -4.1430   12.8920   -8.9090 H         1 KPL1        0.0000
    123 C710       -2.1850   13.7720   -9.1530 C.3       1 KPL1        0.0000
    124 H710       -1.6920   12.8340   -9.5010 H         1 KPL1        0.0000
    125 H710       -1.4350   14.3440   -8.5670 H         1 KPL1        0.0000
    126 C711       -2.5620   14.5450  -10.4250 C.3       1 KPL1        0.0000
    127 H711       -3.5060   14.1470  -10.8550 H         1 KPL1        0.0000
    128 H711       -1.7590   14.3610  -11.1750 H         1 KPL1        0.0000
    129 C712       -2.6610   16.0640  -10.2540 C.3       1 KPL1        0.0000
    130 H712       -1.8130   16.4390   -9.6390 H         1 KPL1        0.0000
    131 H712       -3.6070   16.3080   -9.7220 H         1 KPL1        0.0000
    132 C713       -2.6280   16.7850  -11.6070 C.3       1 KPL1        0.0000
    133 H713       -3.2180   16.1860  -12.3390 H         1 KPL1        0.0000
    134 H713       -1.5760   16.8160  -11.9760 H         1 KPL1        0.0000
    135 C714       -3.2070   18.1980  -11.5440 C.3       1 KPL1        0.0000
    136 H714       -2.6660   18.8110  -10.7910 H         1 KPL1        0.0000
    137 H714       -4.2790   18.1510  -11.2540 H         1 KPL1        0.0000
    138 H714       -3.1340   18.7000  -12.5320 H         1 KPL1        0.0000
    139 C51        -1.5510    4.0040   -2.4270 C.2       1 KPL1        0.0000
    140 O51        -1.8790    3.5440   -3.5100 O.2       1 KPL1        0.0000
    141 C52        -0.1730    4.5760   -2.2110 C.3       1 KPL1        0.0000
    142 H52R        0.4670    3.7550   -1.8180 H         1 KPL1        0.0000
    143 H52S       -0.2090    5.3870   -1.4580 H         1 KPL1        0.0000
    144 C53         0.4350    5.0890   -3.5260 C.3       1 KPL1        0.0000
    145 H53R        0.2900    4.3130   -4.3190 H         1 KPL1        0.0000
    146 O53         1.8170    5.3180   -3.2250 O.3       1 KPL1        0.0000
    147 C61         2.6720    4.9070   -4.1620 C.2       1 KPL1        0.0000
    148 O61         2.3690    4.5180   -5.2710 O.2       1 KPL1        0.0000
    149 C62         4.0900    5.2930   -3.7380 C.3       1 KPL1        0.0000
    150 H62R        4.7900    4.8620   -4.4810 H         1 KPL1        0.0000
    151 H62S        4.2800    4.8180   -2.7560 H         1 KPL1        0.0000
    152 C63         4.3080    6.8130   -3.5980 C.3       1 KPL1        0.0000
    153 H63R        5.2220    6.9780   -2.9820 H         1 KPL1        0.0000
    154 H63S        3.4580    7.2810   -3.0580 H         1 KPL1        0.0000
    155 C64         4.5090    7.5000   -4.9490 C.3       1 KPL1        0.0000
    156 H64R        3.6140    7.3350   -5.5870 H         1 KPL1        0.0000
    157 H64S        5.3780    7.0340   -5.4650 H         1 KPL1        0.0000
    158 C65         4.7600    9.0030   -4.8050 C.3       1 KPL1        0.0000
    159 H65R        5.6640    9.1520   -4.1720 H         1 KPL1        0.0000
    160 H65S        3.9000    9.4820   -4.2870 H         1 KPL1        0.0000
    161 C66         4.9900    9.7000   -6.1490 C.3       1 KPL1        0.0000
    162 H66R        4.1110    9.5630   -6.8160 H         1 KPL1        0.0000
    163 H66S        5.8650    9.2170   -6.6390 H         1 KPL1        0.0000
    164 C67         5.2770   11.1930   -5.9560 C.3       1 KPL1        0.0000
    165 H67R        5.9250   11.2960   -5.0550 H         1 KPL1        0.0000
    166 H67S        4.3340   11.7400   -5.7480 H         1 KPL1        0.0000
    167 C68         6.0240   11.8220   -7.1360 C.3       1 KPL1        0.0000
    168 H68R        6.3030   11.0290   -7.8620 H         1 KPL1        0.0000
    169 H68S        6.9580   12.2760   -6.7340 H         1 KPL1        0.0000
    170 C69         5.2760   12.9390   -7.8680 C.3       1 KPL1        0.0000
    171 H69R        5.0540   13.7420   -7.1290 H         1 KPL1        0.0000
    172 H69S        4.3180   12.5610   -8.2840 H         1 KPL1        0.0000
    173 C610        6.1250   13.5220   -9.0060 C.3       1 KPL1        0.0000
    174 H610        5.8250   13.0570   -9.9710 H         1 KPL1        0.0000
    175 H610        7.1880   13.2480   -8.8240 H         1 KPL1        0.0000
    176 C611        6.0470   15.0500   -9.0850 C.3       1 KPL1        0.0000
    177 H611        6.5010   15.4850   -8.1660 H         1 KPL1        0.0000
    178 H611        4.9770   15.3520   -9.1130 H         1 KPL1        0.0000
    179 C612        6.7640   15.6140  -10.3170 C.3       1 KPL1        0.0000
    180 H612        6.2750   15.2100  -11.2300 H         1 KPL1        0.0000
    181 H612        7.8220   15.2700  -10.3320 H         1 KPL1        0.0000
    182 C613        6.7270   17.1440  -10.3910 C.3       1 KPL1        0.0000
    183 H613        7.3320   17.5600   -9.5530 H         1 KPL1        0.0000
    184 H613        5.6800   17.4940  -10.2500 H         1 KPL1        0.0000
    185 C614        7.2520   17.6790  -11.7250 C.3       1 KPL1        0.0000
    186 H614        6.6380   17.2870  -12.5650 H         1 KPL1        0.0000
    187 H614        8.3040   17.3560  -11.8820 H         1 KPL1        0.0000
    188 H614        7.2120   18.7890  -11.7500 H         1 KPL1        0.0000
    189 C54        -0.2040    6.4190   -4.0040 C.3       1 KPL1        0.0000
    190 H54R       -0.1970    7.1440   -3.1630 H         1 KPL1        0.0000
    191 H54S       -1.2630    6.2160   -4.2770 H         1 KPL1        0.0000
    192 C55         0.5180    7.0540   -5.2080 C.3       1 KPL1        0.0000
    193 H55R        0.6760    6.2750   -5.9890 H         1 KPL1        0.0000
    194 H55S        1.5190    7.4090   -4.8730 H         1 KPL1        0.0000
    195 C56        -0.2090    8.2340   -5.8600 C.3       1 KPL1        0.0000
    196 H56R       -0.3390    9.0430   -5.1130 H         1 KPL1        0.0000
    197 H56S       -1.2220    7.9030   -6.1810 H         1 KPL1        0.0000
    198 C57         0.5680    8.7480   -7.0850 C.3       1 KPL1        0.0000
    199 H57R        0.1200    8.2900   -7.9950 H         1 KPL1        0.0000
    200 H57S        1.6210    8.3910   -7.0240 H         1 KPL1        0.0000
    201 C58         0.6150   10.2740   -7.2500 C.3       1 KPL1        0.0000
    202 H58R        1.3210   10.7010   -6.5020 H         1 KPL1        0.0000
    203 H58S       -0.3890   10.7010   -7.0480 H         1 KPL1        0.0000
    204 C59         1.0680   10.6660   -8.6670 C.3       1 KPL1        0.0000
    205 H59R        0.3100   10.2940   -9.3950 H         1 KPL1        0.0000
    206 H59S        2.0310   10.1560   -8.8940 H         1 KPL1        0.0000
    207 C510        1.2550   12.1780   -8.8670 C.3       1 KPL1        0.0000
    208 H510        2.0010   12.5580   -8.1350 H         1 KPL1        0.0000
    209 H510        0.2920   12.6820   -8.6450 H         1 KPL1        0.0000
    210 C511        1.7240   12.5190  -10.2950 C.3       1 KPL1        0.0000
    211 H511        1.2380   11.8190  -11.0120 H         1 KPL1        0.0000
    212 H511        2.8200   12.3480  -10.3540 H         1 KPL1        0.0000
    213 C512        1.4050   13.9510  -10.7600 C.3       1 KPL1        0.0000
    214 H512        1.6400   14.6900   -9.9650 H         1 KPL1        0.0000
    215 H512        0.3100   13.9970  -10.9480 H         1 KPL1        0.0000
    216 C513        2.1330   14.3500  -12.0580 C.3       1 KPL1        0.0000
    217 H513        1.5100   15.1000  -12.5980 H         1 KPL1        0.0000
    218 H513        2.2170   13.4560  -12.7160 H         1 KPL1        0.0000
    219 C514        3.5200   14.9620  -11.8400 C.3       1 KPL1        0.0000
    220 H514        4.1730   14.2560  -11.2840 H         1 KPL1        0.0000
    221 H514        3.4480   15.9060  -11.2570 H         1 KPL1        0.0000
    222 H514        4.0060   15.1950  -12.8120 H         1 KPL1        0.0000
    223 C33         3.0000    6.7060    1.2120 C.3       1 KPL1        0.0000
    224 H33R        3.9460    7.2450    1.4630 H         1 KPL1        0.0000
    225 O33         2.0470    7.0340    2.2070 O.3       1 KPL1        0.0000
    226 HO33        1.1870    6.6250    2.0560 H         1 KPL1        0.0000
    227 C34         2.5270    7.2170   -0.1590 C.3       1 KPL1        0.0000
    228 H34R        1.5660    6.7390   -0.4510 H         1 KPL1        0.0000
    229 H34S        3.2870    6.9170   -0.9110 H         1 KPL1        0.0000
    230 C35         2.3530    8.7430   -0.2100 C.3       1 KPL1        0.0000
    231 H35R        3.2710    9.2450    0.1690 H         1 KPL1        0.0000
    232 H35S        1.5230    9.0200    0.4800 H         1 KPL1        0.0000
    233 C36         2.0330    9.2410   -1.6250 C.3       1 KPL1        0.0000
    234 H36R        1.6620    8.3780   -2.2260 H         1 KPL1        0.0000
    235 H36S        2.9600    9.6150   -2.1100 H         1 KPL1        0.0000
    236 C37         0.9340   10.3100   -1.6420 C.3       1 KPL1        0.0000
    237 H37R        1.2210   11.1610   -0.9890 H         1 KPL1        0.0000
    238 H37S        0.0260    9.8420   -1.1930 H         1 KPL1        0.0000
    239 C38         0.5710   10.8000   -3.0540 C.3       1 KPL1        0.0000
    240 H38R       -0.5360   10.7270   -3.1560 H         1 KPL1        0.0000
    241 H38S        1.0170   10.1270   -3.8190 H         1 KPL1        0.0000
    242 C39         0.9680   12.2540   -3.3480 C.3       1 KPL1        0.0000
    243 H39R        1.9960   12.2800   -3.7770 H         1 KPL1        0.0000
    244 H39S        0.9920   12.8230   -2.3910 H         1 KPL1        0.0000
    245 C310       -0.0240   12.9520   -4.3010 C.3       1 KPL1        0.0000
    246 H310       -1.0600   12.8510   -3.9010 H         1 KPL1        0.0000
    247 H310        0.0080   12.4390   -5.2870 H         1 KPL1        0.0000
    248 C311        0.2790   14.4460   -4.4790 C.3       1 KPL1        0.0000
    249 H311        1.3830   14.5700   -4.5500 H         1 KPL1        0.0000
    250 H311       -0.0610   14.9910   -3.5700 H         1 KPL1        0.0000
    251 C312       -0.3520   15.0830   -5.7310 C.3       1 KPL1        0.0000
    252 H312       -0.7900   14.2980   -6.3830 H         1 KPL1        0.0000
    253 H312        0.4570   15.5790   -6.3160 H         1 KPL1        0.0000
    254 C313       -1.4170   16.1410   -5.4090 C.3       1 KPL1        0.0000
    255 H313       -0.9930   16.8610   -4.6730 H         1 KPL1        0.0000
    256 H313       -2.2900   15.6440   -4.9300 H         1 KPL1        0.0000
    257 C314       -1.8870   16.9190   -6.6400 C.3       1 KPL1        0.0000
    258 H314       -2.3500   16.2240   -7.3730 H         1 KPL1        0.0000
    259 H314       -1.0260   17.4290   -7.1300 H         1 KPL1        0.0000
    260 H314       -2.6390   17.6900   -6.3600 H         1 KPL1        0.0000
    261 C11         3.9910    1.7260   -1.2650 C.2       1 KPL1        0.0000
    262 O11         3.6820    2.8790   -1.5630 O.2       1 KPL1        0.0000
    263 C12         4.9870    0.9380   -2.0890 C.3       1 KPL1        0.0000
    264 H12R        4.3810    0.2560   -2.7230 H         1 KPL1        0.0000
    265 H12S        5.5930    0.3120   -1.4060 H         1 KPL1        0.0000
    266 C13         5.8820    1.8240   -2.9800 C.3       1 KPL1        0.0000
    267 H13R        5.3880    2.7970   -3.2120 H         1 KPL1        0.0000
    268 O13         6.2020    1.0770   -4.1610 O.3       1 KPL1        0.0000
    269 C21         5.6180    1.4740   -5.2790 C.2       1 KPL1        0.0000
    270 O21         4.8910    2.4490   -5.4080 O.2       1 KPL1        0.0000
    271 C22         6.0500    0.5680   -6.4270 C.3       1 KPL1        0.0000
    272 H22S        5.1840    0.4650   -7.1130 H         1 KPL1        0.0000
    273 H22R        6.2830   -0.4310   -6.0020 H         1 KPL1        0.0000
    274 C23         7.2820    1.1170   -7.1850 C.3       1 KPL1        0.0000
    275 H23R        7.7060    0.2870   -7.7970 H         1 KPL1        0.0000
    276 H23S        8.0730    1.4280   -6.4660 H         1 KPL1        0.0000
    277 C24         6.9380    2.2760   -8.1360 C.3       1 KPL1        0.0000
    278 H24R        6.6000    3.1560   -7.5440 H         1 KPL1        0.0000
    279 H24S        6.0890    1.9630   -8.7840 H         1 KPL1        0.0000
    280 C25         8.1150    2.6890   -9.0360 C.3       1 KPL1        0.0000
    281 H25R        8.4850    1.7890   -9.5760 H         1 KPL1        0.0000
    282 H25S        8.9440    3.0730   -8.4020 H         1 KPL1        0.0000
    283 C26         7.7480    3.7510  -10.0860 C.3       1 KPL1        0.0000
    284 H26R        7.2660    4.6220   -9.5870 H         1 KPL1        0.0000
    285 H26S        7.0050    3.3120  -10.7880 H         1 KPL1        0.0000
    286 C27         8.9690    4.2520  -10.8790 C.3       1 KPL1        0.0000
    287 H27R        9.6220    3.3930  -11.1520 H         1 KPL1        0.0000
    288 H27S        9.5620    4.9210  -10.2180 H         1 KPL1        0.0000
    289 C28         8.5880    5.0130  -12.1600 C.3       1 KPL1        0.0000
    290 H28R        7.6510    5.5880  -11.9750 H         1 KPL1        0.0000
    291 H28S        8.3790    4.2740  -12.9690 H         1 KPL1        0.0000
    292 C29         9.6780    5.9960  -12.6180 C.3       1 KPL1        0.0000
    293 H29R       10.6500    5.4600  -12.7100 H         1 KPL1        0.0000
    294 H29S        9.8020    6.7890  -11.8440 H         1 KPL1        0.0000
    295 C210        9.3600    6.6710  -13.9600 C.3       1 KPL1        0.0000
    296 H210        8.4300    7.2730  -13.8570 H         1 KPL1        0.0000
    297 H210        9.1720    5.8880  -14.7290 H         1 KPL1        0.0000
    298 C211       10.5120    7.5710  -14.4340 C.3       1 KPL1        0.0000
    299 H211       11.3990    6.9280  -14.6270 H         1 KPL1        0.0000
    300 H211       10.7800    8.2790  -13.6180 H         1 KPL1        0.0000
    301 C212       10.1800    8.3780  -15.6970 C.3       1 KPL1        0.0000
    302 H212        9.4570    9.1800  -15.4250 H         1 KPL1        0.0000
    303 H212        9.6850    7.7160  -16.4420 H         1 KPL1        0.0000
    304 C213       11.4140    9.0120  -16.3600 C.3       1 KPL1        0.0000
    305 H213       12.0380    8.2020  -16.8010 H         1 KPL1        0.0000
    306 H213       12.0300    9.5270  -15.5890 H         1 KPL1        0.0000
    307 C214       11.0360   10.0260  -17.4520 C.3       1 KPL1        0.0000
    308 H214       10.5490   10.9020  -16.9680 H         1 KPL1        0.0000
    309 H214       10.2930    9.5640  -18.1390 H         1 KPL1        0.0000
    310 C215       12.2440   10.5000  -18.2740 C.3       1 KPL1        0.0000
    311 H215       12.6310    9.6340  -18.8590 H         1 KPL1        0.0000
    312 H215       13.0500   10.8180  -17.5750 H         1 KPL1        0.0000
    313 C216       11.9420   11.6570  -19.2340 C.3       1 KPL1        0.0000
    314 H216       11.6120   12.5570  -18.6710 H         1 KPL1        0.0000
    315 H216       11.1430   11.3790  -19.9530 H         1 KPL1        0.0000
    316 H216       12.8550   11.9240  -19.8100 H         1 KPL1        0.0000
    317 C14         7.2130    2.1510   -2.2740 C.3       1 KPL1        0.0000
    318 H14R        7.6560    1.2010   -1.8990 H         1 KPL1        0.0000
    319 H14S        6.9810    2.7900   -1.3960 H         1 KPL1        0.0000
    320 C15         8.2470    2.8490   -3.1770 C.3       1 KPL1        0.0000
    321 H15R        8.5620    2.1430   -3.9790 H         1 KPL1        0.0000
    322 H15S        9.1500    3.0830   -2.5710 H         1 KPL1        0.0000
    323 C16         7.7220    4.1290   -3.8380 C.3       1 KPL1        0.0000
    324 H16R        7.1400    4.7260   -3.0980 H         1 KPL1        0.0000
    325 H16S        7.0310    3.8660   -4.6720 H         1 KPL1        0.0000
    326 C17         8.8450    5.0040   -4.4000 C.3       1 KPL1        0.0000
    327 H17R        9.5330    4.3920   -5.0270 H         1 KPL1        0.0000
    328 H17S        9.4330    5.4100   -3.5460 H         1 KPL1        0.0000
    329 C18         8.2990    6.1620   -5.2420 C.3       1 KPL1        0.0000
    330 H18R        7.5650    6.7290   -4.6280 H         1 KPL1        0.0000
    331 H18S        7.7610    5.7520   -6.1270 H         1 KPL1        0.0000
    332 C19         9.4140    7.1120   -5.6880 C.3       1 KPL1        0.0000
    333 H19R       10.1430    6.5470   -6.3090 H         1 KPL1        0.0000
    334 H19S        9.9490    7.4640   -4.7780 H         1 KPL1        0.0000
    335 C110        8.9120    8.3390   -6.4620 C.3       1 KPL1        0.0000
    336 H110        8.0800    8.8160   -5.8960 H         1 KPL1        0.0000
    337 H110        8.5140    8.0190   -7.4490 H         1 KPL1        0.0000
    338 C111       10.0230    9.3820   -6.6660 C.3       1 KPL1        0.0000
    339 H111       10.8400    8.9390   -7.2740 H         1 KPL1        0.0000
    340 H111       10.4330    9.6310   -5.6610 H         1 KPL1        0.0000
    341 C112        9.5180   10.6670   -7.3390 C.3       1 KPL1        0.0000
    342 H112        8.6460   11.0240   -6.7550 H         1 KPL1        0.0000
    343 H112        9.1820   10.4380   -8.3740 H         1 KPL1        0.0000
    344 C113       10.5410   11.8100   -7.3760 C.3       1 KPL1        0.0000
    345 H113       11.4330   11.4640   -7.9440 H         1 KPL1        0.0000
    346 H113       10.8580   12.0350   -6.3320 H         1 KPL1        0.0000
    347 C114       10.0100   13.1050   -8.0010 C.3       1 KPL1        0.0000
    348 H114        9.1570   13.5100   -7.4150 H         1 KPL1        0.0000
    349 H114        9.6710   12.9200   -9.0430 H         1 KPL1        0.0000
    350 H114       10.8060   13.8800   -8.0230 H         1 KPL1        0.0000
@<TRIPOS>BOND
     1  315  313 1 
     2  316  313 1 
     3  313  314 1 
     4  313  310 1 
     5  311  310 1 
     6  310  312 1 
     7  310  307 1 
     8  309  307 1 
     9  102  101 1 
    10  104  101 1 
    11  307  308 1 
    12  307  304 1 
    13  101  103 1 
    14  101   98 1 
    15  100   98 1 
    16  305  304 1 
    17  303  301 1 
    18  304  301 1 
    19  304  306 1 
    20   98   99 1 
    21   98   95 1 
    22   96   95 1 
    23  301  302 1 
    24  301  298 1 
    25   94   92 1 
    26   95   92 1 
    27   95   97 1 
    28   90   89 1 
    29  297  295 1 
    30   92   89 1 
    31   92   93 1 
    32  299  298 1 
    33  298  295 1 
    34  298  300 1 
    35   89   91 1 
    36   89   86 1 
    37   88   86 1 
    38  295  296 1 
    39  295  292 1 
    40   85   83 1 
    41   86   83 1 
    42   86   87 1 
    43   83   84 1 
    44   83   80 1 
    45  291  289 1 
    46   81   80 1 
    47  222  219 1 
    48  218  216 1 
    49  293  292 1 
    50  292  289 1 
    51  292  294 1 
    52  217  216 1 
    53  186  185 1 
    54  138  135 1 
    55  133  132 1 
    56   80   82 1 
    57   80   77 1 
    58  289  290 1 
    59  289  286 1 
    60   79   77 1 
    61  216  219 1 
    62  216  213 1 
    63  134  132 1 
    64  187  185 1 
    65  219  220 1 
    66  219  221 1 
    67  188  185 1 
    68  185  182 1 
    69  132  135 1 
    70  132  129 1 
    71  135  137 1 
    72  135  136 1 
    73   75   74 1 
    74   77   74 1 
    75   77   78 1 
    76  180  179 1 
    77  128  126 1 
    78  287  286 1 
    79  211  210 1 
    80  215  213 1 
    81  286  288 1 
    82  286  283 1 
    83  127  126 1 
    84  285  283 1 
    85  213  210 1 
    86  213  214 1 
    87   74   76 1 
    88   74   71 1 
    89  126  129 1 
    90  126  123 1 
    91   73   71 1 
    92  182  179 1 
    93  182  184 1 
    94  182  183 1 
    95  212  210 1 
    96  181  179 1 
    97  179  176 1 
    98  210  207 1 
    99  129  131 1 
   100  129  130 1 
   101  283  284 1 
   102  283  280 1 
   103  174  173 1 
   104   71   72 1 
   105   71   68 1 
   106  281  280 1 
   107  124  123 1 
   108  205  204 1 
   109  123  125 1 
   110  123  120 1 
   111  178  176 1 
   112  176  173 1 
   113  176  177 1 
   114  349  347 1 
   115  280  282 1 
   116  280  277 1 
   117  173  175 1 
   118  173  170 1 
   119  122  120 1 
   120  206  204 1 
   121  207  204 1 
   122  207  209 1 
   123  207  208 1 
   124  279  277 1 
   125  204  201 1 
   126   69   68 1 
   127   68   70 1 
   128   68   65 1 
   129  343  341 1 
   130  172  170 1 
   131  120  121 1 
   132  120  117 1 
   133   66   65 1 
   134  277  278 1 
   135  277  274 1 
   136  350  347 1 
   137  347  348 1 
   138  347  344 1 
   139  199  198 1 
   140  345  344 1 
   141  170  167 1 
   142  170  171 1 
   143  168  167 1 
   144  275  274 1 
   145  118  117 1 
   146   67   65 1 
   147   65   63 1 
   148  116  114 1 
   149  337  335 1 
   150  344  341 1 
   151  344  346 1 
   152  258  257 1 
   153  341  342 1 
   154  341  338 1 
   155  339  338 1 
   156  117  114 1 
   157  117  119 1 
   158  201  198 1 
   159  201  203 1 
   160  201  202 1 
   161  274  276 1 
   162  274  271 1 
   163  167  169 1 
   164  167  164 1 
   165  259  257 1 
   166  272  271 1 
   167  198  200 1 
   168  198  195 1 
   169  162  161 1 
   170  114  115 1 
   171  114  111 1 
   172  112  111 1 
   173  338  335 1 
   174  338  340 1 
   175  257  260 1 
   176  257  254 1 
   177  163  161 1 
   178  335  336 1 
   179  335  332 1 
   180  271  273 1 
   181  271  269 1 
   182  252  251 1 
   183  253  251 1 
   184  333  332 1 
   185   63   62 1 
   186   63   64 2 
   187  197  195 1 
   188  161  164 1 
   189  161  158 1 
   190  331  329 1 
   191  111  113 1 
   192  111  108 1 
   193  193  192 1 
   194  164  166 1 
   195  164  165 1 
   196  195  192 1 
   197  195  196 1 
   198   62   60 1 
   199  251  254 1 
   200  251  248 1 
   201  332  329 1 
   202  332  334 1 
   203  156  155 1 
   204  157  155 1 
   205  254  256 1 
   206  254  255 1 
   207  270  269 2 
   208  247  245 1 
   209  269  268 1 
   210  148  147 2 
   211  329  330 1 
   212  329  326 1 
   213  192  194 1 
   214  192  189 1 
   215  327  326 1 
   216  155  158 1 
   217  155  152 1 
   218  106  105 1 
   219  158  160 1 
   220  158  159 1 
   221  110  108 1 
   222   29   27 1 
   223  108  105 1 
   224  108  109 1 
   225  325  323 1 
   226  249  248 1 
   227  150  149 1 
   228  248  245 1 
   229  248  250 1 
   230   60  105 1 
   231   60   27 1 
   232   60   61 1 
   233  326  323 1 
   234  326  328 1 
   235  145  144 1 
   236   28   27 1 
   237  245  246 1 
   238  245  242 1 
   239  191  189 1 
   240  105  107 1 
   241  147  149 1 
   242  147  146 1 
   243  268  266 1 
   244   27   25 1 
   245  189  144 1 
   246  189  190 1 
   247  321  320 1 
   248  323  320 1 
   249  323  324 1 
   250  241  239 1 
   251  243  242 1 
   252  149  152 1 
   253  149  151 1 
   254  152  154 1 
   255  152  153 1 
   256  144  146 1 
   257  144  141 1 
   258  140  139 2 
   259  242  239 1 
   260  242  244 1 
   261  267  266 1 
   262  320  322 1 
   263  320  317 1 
   264  240  239 1 
   265  239  236 1 
   266  266  317 1 
   267  266  263 1 
   268   21   18 2 
   269  264  263 1 
   270   25   23 1 
   271   25   26 2 
   272   23   22 1 
   273  139  141 1 
   274  139   32 am
   275   19   18 1 
   276  317  318 1 
   277  317  319 1 
   278  234  233 1 
   279  141  142 1 
   280  141  143 1 
   281  235  233 1 
   282  263  265 1 
   283  263  261 1 
   284   31   30 1 
   285   18   20 1 
   286   18   17 1 
   287   16   15 1 
   288  236  233 1 
   289  236  238 1 
   290  236  237 1 
   291  233  230 1 
   292  262  261 2 
   293   32   30 1 
   294   32   33 1 
   295  261   58 am
   296   22   30 1 
   297   22   15 1 
   298   22   24 1 
   299   30    9 1 
   300   42   41 1 
   301   15   17 1 
   302   15    6 1 
   303  229  227 1 
   304   57   56 1 
   305  228  227 1 
   306   45   47 2 
   307   58   56 1 
   308   58   59 1 
   309    5    4 1 
   310  230  227 1 
   311  230  231 1 
   312  230  232 1 
   313  227  223 1 
   314   11    9 1 
   315   11   12 1 
   316   41   40 1 
   317   41   56 1 
   318   41   43 1 
   319   40   38 1 
   320   56   48 1 
   321    9    7 1 
   322    9   10 1 
   323    7    6 1 
   324    6    4 1 
   325    6    8 1 
   326   35   34 1 
   327   54   53 1 
   328    4    1 1 
   329    4    2 1 
   330   46   47 1 
   331   47   43 1 
   332   47   44 1 
   333   13   12 1 
   334   52   51 2 
   335   51   53 1 
   336   51   50 1 
   337   12   38 1 
   338   12   14 1 
   339   38   34 1 
   340   38   39 1 
   341  223   53 1 
   342  223  224 1 
   343  223  225 1 
   344   48   34 1 
   345   48   50 1 
   346   48   49 1 
   347   53   55 1 
   348   34   36 1 
   349    3    2 1 
   350  226  225 1 
   351   37   36 1 
