@<TRIPOS>MOLECULE
C:\Users\Praveer\PycharmProjects\pdb_to_mol2_converter\data\pdb\kplipc.pdb
  370   372     0     0     0
SMALL
GASTEIGER

@<TRIPOS>ATOM
      1 HB6S       -7.7000    2.7350    1.4560 H         1 KPL1        0.0000
      2 OB6        -6.4930    1.4570    2.5270 O.3       1 KPL1        0.0000
      3 HOB6       -5.6800    0.9620    2.3820 H         1 KPL1        0.0000
      4 CB6        -6.8220    2.0800    1.2870 C.3       1 KPL1        0.0000
      5 HB6R       -7.1000    1.2970    0.5490 H         1 KPL1        0.0000
      6 CB5        -5.6720    2.8870    0.7440 C.3       1 KPL1        0.0000
      7 OB5        -4.5810    1.9780    0.6050 O.3       1 KPL1        0.0000
      8 HB5        -5.4280    3.6980    1.4720 H         1 KPL1        0.0000
      9 CB1        -3.3690    2.6430    0.2560 C.3       1 KPL1        0.0000
     10 HB1        -3.0390    3.2790    1.1080 H         1 KPL1        0.0000
     11 OA6        -2.3810    1.7060   -0.0740 O.3       1 KPL1        0.0000
     12 CA6        -2.0700    0.8130    0.9990 C.3       1 KPL1        0.0000
     13 HA6R       -2.5030   -0.1870    0.7780 H         1 KPL1        0.0000
     14 HA6S       -2.4950    1.1790    1.9610 H         1 KPL1        0.0000
     15 CB4        -5.9060    3.4590   -0.6380 C.3       1 KPL1        0.0000
     16 HB4        -5.8850    2.6020   -1.3610 H         1 KPL1        0.0000
     17 OB4        -7.1470    4.1770   -0.6460 O.3       1 KPL1        0.0000
     18 OD1        -9.6250    3.4410   -0.6870 O.3       1 KPL1        0.0000
     19 PB         -8.3530    3.7020   -1.7000 P.3       1 KPL1        0.0000
     20 OPB3       -7.9510    2.3800   -2.3420 O.3       1 KPL1        0.0000
     21 OPB4       -8.6800    4.8420   -2.6450 O.2       1 KPL1        0.0000
     22 CD1       -10.5950    2.4110   -0.7640 C.3       1 KPL1        0.0000
     23 HD1       -11.4320    2.7980   -0.1260 H         1 KPL1        0.0000
     24 CD5       -10.6180    1.3140   -2.9460 C.3       1 KPL1        0.0000
     25 HD51       -9.8180    1.8200   -3.5230 H         1 KPL1        0.0000
     26 HD52      -11.3690    1.1100   -3.7370 H         1 KPL1        0.0000
     27 OD5       -11.2230    2.2670   -2.0530 O.3       1 KPL1        0.0000
     28 CD2       -10.2840    1.0660   -0.1350 C.3       1 KPL1        0.0000
     29 HD2       -11.2670    0.5410   -0.0480 H         1 KPL1        0.0000
     30 OD2        -9.8580    1.1930    1.2140 O.3       1 KPL1        0.0000
     31 HOD2       -9.5840    2.1070    1.3900 H         1 KPL1        0.0000
     32 CD3        -9.4350    0.1480   -0.9920 C.3       1 KPL1        0.0000
     33 HD3        -8.4320    0.5880   -1.1220 H         1 KPL1        0.0000
     34 OD3        -9.2140   -1.1220   -0.3650 O.3       1 KPL1        0.0000
     35 HOD3       -8.7820   -0.9630    0.4910 H         1 KPL1        0.0000
     36 CD4       -10.0780    0.0040   -2.3660 C.3       1 KPL1        0.0000
     37 HD4        -9.2770   -0.3650   -3.0540 H         1 KPL1        0.0000
     38 ND4       -11.1030   -1.0150   -2.3770 N.4       1 KPL1        0.0000
     39 HND1      -11.2560   -1.3900   -3.3320 H         1 KPL1        0.0000
     40 HND2      -11.9790   -0.6080   -1.9870 H         1 KPL1        0.0000
     41 HND3      -10.7470   -1.7710   -1.7450 H         1 KPL1        0.0000
     42 CB3        -4.7410    4.3450   -0.9990 C.3       1 KPL1        0.0000
     43 OB3        -4.9460    4.7860   -2.3360 O.3       1 KPL1        0.0000
     44 HB3        -4.6300    5.1730   -0.2560 H         1 KPL1        0.0000
     45 C71        -5.3420    6.0330   -2.5380 C.2       1 KPL1        0.0000
     46 O71        -5.3280    6.9260   -1.7090 O.2       1 KPL1        0.0000
     47 C72        -5.4970    6.2200   -4.0350 C.3       1 KPL1        0.0000
     48 H72R       -6.4520    5.7300   -4.3210 H         1 KPL1        0.0000
     49 H72S       -4.6590    5.7070   -4.5510 H         1 KPL1        0.0000
     50 CB2        -3.4850    3.4910   -1.0000 C.3       1 KPL1        0.0000
     51 HB2        -3.6160    2.7630   -1.8450 H         1 KPL1        0.0000
     52 NB2        -2.2460    4.2350   -1.2190 N.am      1 KPL1        0.0000
     53 HNB2       -1.7650    4.5360   -0.4060 H         1 KPL1        0.0000
     54 CA4         0.0910    2.0820    1.1730 C.3       1 KPL1        0.0000
     55 HA4        -0.2060    2.6270    0.2460 H         1 KPL1        0.0000
     56 OA4        -0.3900    2.8180    2.2950 O.3       1 KPL1        0.0000
     57 HOA4       -0.1720    3.7440    2.1130 H         1 KPL1        0.0000
     58 CA5        -0.5630    0.7140    1.1120 C.3       1 KPL1        0.0000
     59 HA5        -0.3050    0.1380    2.0320 H         1 KPL1        0.0000
     60 OA5        -0.0970   -0.0160   -0.0350 O.3       1 KPL1        0.0000
     61 CA1         1.3290   -0.2000   -0.0690 C.3       1 KPL1        0.0000
     62 HA1         1.5500   -0.6680   -1.0630 H         1 KPL1        0.0000
     63 OA1         1.7470   -1.0370    0.9950 O.3       1 KPL1        0.0000
     64 OPA2        3.0310   -2.8980    2.0700 O.3       1 KPL1        0.0000
     65 OPA3        2.5780   -2.9190   -0.4530 O.2       1 KPL1        0.0000
     66 OPA4        4.2240   -1.2590    0.5310 O.3       1 KPL1        0.0000
     67 PA          2.9830   -2.1070    0.7750 P.3       1 KPL1        0.0000
     68 CA3         1.6000    1.9450    1.1600 C.3       1 KPL1        0.0000
     69 HA3         1.8840    1.3220    2.0440 H         1 KPL1        0.0000
     70 OA3         2.4300    3.1080    1.2150 O.3       1 KPL1        0.0000
     71 C31         2.0390    4.3340    0.9970 C.2       1 KPL1        0.0000
     72 O31         0.8970    4.7430    0.9160 O.2       1 KPL1        0.0000
     73 C32         3.2540    5.1990    1.3210 C.3       1 KPL1        0.0000
     74 H32R        4.0620    4.9340    0.6090 H         1 KPL1        0.0000
     75 H32S        3.5920    4.9400    2.3450 H         1 KPL1        0.0000
     76 CA2         1.9780    1.1630   -0.0770 C.3       1 KPL1        0.0000
     77 HA2         1.5220    1.6870   -0.9560 H         1 KPL1        0.0000
     78 NA2         3.3900    1.0470   -0.3400 N.am      1 KPL1        0.0000
     79 HNA2        3.7770    0.1670    0.0110 H         1 KPL1        0.0000
     80 C73        -5.5250    7.7020   -4.4380 C.3       1 KPL1        0.0000
     81 H73R       -6.3080    8.2440   -3.8510 H         1 KPL1        0.0000
     82 O73        -5.7910    7.7270   -5.8470 O.3       1 KPL1        0.0000
     83 C81        -7.0820    7.7430   -6.1660 C.2       1 KPL1        0.0000
     84 O81        -7.9930    7.9710   -5.3950 O.2       1 KPL1        0.0000
     85 C82        -7.2730    7.7970   -7.6910 C.3       1 KPL1        0.0000
     86 H82R       -7.6000    8.8370   -7.9020 H         1 KPL1        0.0000
     87 H82S       -8.1150    7.1240   -7.9460 H         1 KPL1        0.0000
     88 C83        -6.0450    7.4640   -8.5750 C.3       1 KPL1        0.0000
     89 H83R       -5.9570    6.3650   -8.7190 H         1 KPL1        0.0000
     90 H83S       -5.1110    7.8180   -8.0850 H         1 KPL1        0.0000
     91 C84        -6.1340    8.1810   -9.9320 C.3       1 KPL1        0.0000
     92 H84R       -6.3260    9.2580   -9.7180 H         1 KPL1        0.0000
     93 H84S       -6.9990    7.7980  -10.5170 H         1 KPL1        0.0000
     94 C85        -4.8490    8.0900  -10.7680 C.3       1 KPL1        0.0000
     95 H85R       -4.9430    7.2730  -11.5170 H         1 KPL1        0.0000
     96 H85S       -3.9920    7.8390  -10.1030 H         1 KPL1        0.0000
     97 C86        -4.5210    9.4120  -11.4780 C.3       1 KPL1        0.0000
     98 H86R       -4.4770   10.2270  -10.7200 H         1 KPL1        0.0000
     99 H86S       -5.3380    9.6570  -12.1910 H         1 KPL1        0.0000
    100 C87        -3.1760    9.3760  -12.2170 C.3       1 KPL1        0.0000
    101 H87R       -3.1540    8.5060  -12.9090 H         1 KPL1        0.0000
    102 H87S       -2.3670    9.2370  -11.4660 H         1 KPL1        0.0000
    103 C88        -2.9130   10.6620  -13.0130 C.3       1 KPL1        0.0000
    104 H88R       -3.2590   11.5360  -12.4150 H         1 KPL1        0.0000
    105 H88S       -3.5220   10.6320  -13.9440 H         1 KPL1        0.0000
    106 C89        -1.4330   10.8900  -13.3700 C.3       1 KPL1        0.0000
    107 H89R       -0.8790   11.1740  -12.4480 H         1 KPL1        0.0000
    108 H89S       -1.3840   11.7550  -14.0690 H         1 KPL1        0.0000
    109 C810       -0.7380    9.6770  -14.0150 C.3       1 KPL1        0.0000
    110 H810       -1.4010    9.2710  -14.8110 H         1 KPL1        0.0000
    111 H810       -0.5920    8.8810  -13.2510 H         1 KPL1        0.0000
    112 C811        0.6190   10.0360  -14.6430 C.3       1 KPL1        0.0000
    113 H811        1.3200   10.3650  -13.8430 H         1 KPL1        0.0000
    114 H811        0.4650   10.8960  -15.3330 H         1 KPL1        0.0000
    115 C812        1.2590    8.8850  -15.4410 C.3       1 KPL1        0.0000
    116 H812        0.5200    8.4970  -16.1760 H         1 KPL1        0.0000
    117 H812        1.5140    8.0520  -14.7490 H         1 KPL1        0.0000
    118 C813        2.5220    9.3250  -16.2020 C.3       1 KPL1        0.0000
    119 H813        3.2390    9.7700  -15.4760 H         1 KPL1        0.0000
    120 H813        2.2390   10.1250  -16.9240 H         1 KPL1        0.0000
    121 C814        3.2250    8.1980  -16.9680 C.3       1 KPL1        0.0000
    122 H814        2.5500    7.7620  -17.7350 H         1 KPL1        0.0000
    123 H814        3.5390    7.3890  -16.2740 H         1 KPL1        0.0000
    124 H814        4.1300    8.5880  -17.4830 H         1 KPL1        0.0000
    125 C74        -4.1840    8.4420   -4.1960 C.3       1 KPL1        0.0000
    126 H74R       -3.3580    7.8930   -4.6970 H         1 KPL1        0.0000
    127 H74S       -3.9760    8.4420   -3.1040 H         1 KPL1        0.0000
    128 C75        -4.2050    9.9120   -4.6690 C.3       1 KPL1        0.0000
    129 H75R       -3.6480   10.5570   -3.9530 H         1 KPL1        0.0000
    130 H75S       -5.2640   10.2560   -4.6660 H         1 KPL1        0.0000
    131 C76        -3.6100   10.1080   -6.0710 C.3       1 KPL1        0.0000
    132 H76R       -3.8880    9.2400   -6.7100 H         1 KPL1        0.0000
    133 H76S       -2.5010   10.1030   -5.9910 H         1 KPL1        0.0000
    134 C77        -4.0930   11.3920   -6.7700 C.3       1 KPL1        0.0000
    135 H77R       -4.7280   11.9930   -6.0850 H         1 KPL1        0.0000
    136 H77S       -4.7310   11.0860   -7.6310 H         1 KPL1        0.0000
    137 C78        -2.9470   12.2660   -7.2960 C.3       1 KPL1        0.0000
    138 H78R       -2.2200   11.5830   -7.7890 H         1 KPL1        0.0000
    139 H78S       -2.4250   12.7700   -6.4530 H         1 KPL1        0.0000
    140 C79        -3.3880   13.2960   -8.3490 C.3       1 KPL1        0.0000
    141 H79R       -3.8380   14.1880   -7.8630 H         1 KPL1        0.0000
    142 H79S       -4.1700   12.8280   -8.9900 H         1 KPL1        0.0000
    143 C710       -2.2150   13.6910   -9.2560 C.3       1 KPL1        0.0000
    144 H710       -1.7540   12.7410   -9.6170 H         1 KPL1        0.0000
    145 H710       -1.4420   14.2380   -8.6730 H         1 KPL1        0.0000
    146 C711       -2.6010   14.4860  -10.5090 C.3       1 KPL1        0.0000
    147 H711       -3.5510   14.0940  -10.9330 H         1 KPL1        0.0000
    148 H711       -1.8080   14.3170  -11.2740 H         1 KPL1        0.0000
    149 C712       -2.7080   15.9990  -10.2900 C.3       1 KPL1        0.0000
    150 H712       -1.8520   16.3540   -9.6710 H         1 KPL1        0.0000
    151 H712       -3.6480   16.2210   -9.7380 H         1 KPL1        0.0000
    152 C713       -2.6880   16.7580  -11.6230 C.3       1 KPL1        0.0000
    153 H713       -3.3150   16.2020  -12.3570 H         1 KPL1        0.0000
    154 H713       -1.6450   16.7610  -12.0130 H         1 KPL1        0.0000
    155 C714       -3.2060   18.1930  -11.5200 C.3       1 KPL1        0.0000
    156 H714       -2.6270   18.7690  -10.7660 H         1 KPL1        0.0000
    157 H714       -4.2750   18.1900  -11.2150 H         1 KPL1        0.0000
    158 H714       -3.1220   18.7100  -12.5000 H         1 KPL1        0.0000
    159 C51        -1.5840    4.2620   -2.3860 C.2       1 KPL1        0.0000
    160 O51        -2.1180    4.0240   -3.4610 O.2       1 KPL1        0.0000
    161 C52        -0.0990    4.5400   -2.2820 C.3       1 KPL1        0.0000
    162 H52R        0.4030    3.5850   -2.0110 H         1 KPL1        0.0000
    163 H52S        0.0850    5.2740   -1.4740 H         1 KPL1        0.0000
    164 C53         0.5110    5.0570   -3.5980 C.3       1 KPL1        0.0000
    165 H53R        0.3690    4.2740   -4.3840 H         1 KPL1        0.0000
    166 O53         1.8970    5.2710   -3.2930 O.3       1 KPL1        0.0000
    167 C61         2.7600    4.9960   -4.2670 C.2       1 KPL1        0.0000
    168 O61         2.4630    4.7460   -5.4280 O.2       1 KPL1        0.0000
    169 C62         4.1780    5.3140   -3.7970 C.3       1 KPL1        0.0000
    170 H62R        4.8790    4.8520   -4.5200 H         1 KPL1        0.0000
    171 H62S        4.3150    4.8290   -2.8100 H         1 KPL1        0.0000
    172 C63         4.4610    6.8240   -3.6550 C.3       1 KPL1        0.0000
    173 H63R        5.4400    6.9510   -3.1350 H         1 KPL1        0.0000
    174 H63S        3.6830    7.2960   -3.0180 H         1 KPL1        0.0000
    175 C64         4.5410    7.5520   -5.0000 C.3       1 KPL1        0.0000
    176 H64R        3.6470    7.3200   -5.6190 H         1 KPL1        0.0000
    177 H64S        5.4300    7.1810   -5.5570 H         1 KPL1        0.0000
    178 C65         4.6430    9.0720   -4.8320 C.3       1 KPL1        0.0000
    179 H65R        5.4640    9.2980   -4.1120 H         1 KPL1        0.0000
    180 H65S        3.6970    9.4700   -4.4040 H         1 KPL1        0.0000
    181 C66         4.9500    9.7800   -6.1550 C.3       1 KPL1        0.0000
    182 H66R        4.1070    9.6520   -6.8680 H         1 KPL1        0.0000
    183 H66S        5.8460    9.2910   -6.6000 H         1 KPL1        0.0000
    184 C67         5.2460   11.2710   -5.9530 C.3       1 KPL1        0.0000
    185 H67R        5.8740   11.3770   -5.0390 H         1 KPL1        0.0000
    186 H67S        4.2970   11.8230   -5.7750 H         1 KPL1        0.0000
    187 C68         6.0190   11.8910   -7.1230 C.3       1 KPL1        0.0000
    188 H68R        6.3190   11.0960   -7.8400 H         1 KPL1        0.0000
    189 H68S        6.9470   12.3620   -6.7240 H         1 KPL1        0.0000
    190 C69         5.2330   12.9690   -7.8720 C.3       1 KPL1        0.0000
    191 H69R        5.0070   13.7880   -7.1530 H         1 KPL1        0.0000
    192 H69S        4.2660   12.5560   -8.2360 H         1 KPL1        0.0000
    193 C610        6.0300   13.5430   -9.0490 C.3       1 KPL1        0.0000
    194 H610        5.6140   13.1400   -9.9980 H         1 KPL1        0.0000
    195 H610        7.0890   13.2040   -8.9790 H         1 KPL1        0.0000
    196 C611        6.0210   15.0750   -9.0790 C.3       1 KPL1        0.0000
    197 H611        6.4900   15.4610   -8.1460 H         1 KPL1        0.0000
    198 H611        4.9650   15.4300   -9.1030 H         1 KPL1        0.0000
    199 C612        6.7730   15.6340  -10.2920 C.3       1 KPL1        0.0000
    200 H612        6.3310   15.1970  -11.2150 H         1 KPL1        0.0000
    201 H612        7.8400   15.3190  -10.2500 H         1 KPL1        0.0000
    202 C613        6.7070   17.1620  -10.3940 C.3       1 KPL1        0.0000
    203 H613        7.2630   17.6140   -9.5410 H         1 KPL1        0.0000
    204 H613        5.6440   17.4830  -10.3030 H         1 KPL1        0.0000
    205 C614        7.2750   17.6820  -11.7160 C.3       1 KPL1        0.0000
    206 H614        6.6890   17.2760  -12.5690 H         1 KPL1        0.0000
    207 H614        8.3310   17.3590  -11.8350 H         1 KPL1        0.0000
    208 H614        7.2330   18.7910  -11.7580 H         1 KPL1        0.0000
    209 C54        -0.1420    6.3850   -4.0700 C.3       1 KPL1        0.0000
    210 H54R       -0.1370    7.1040   -3.2250 H         1 KPL1        0.0000
    211 H54S       -1.2000    6.1760   -4.3440 H         1 KPL1        0.0000
    212 C55         0.5310    7.0310   -5.2910 C.3       1 KPL1        0.0000
    213 H55R        0.6010    6.2740   -6.1050 H         1 KPL1        0.0000
    214 H55S        1.5640    7.3300   -5.0100 H         1 KPL1        0.0000
    215 C56        -0.1790    8.2650   -5.8560 C.3       1 KPL1        0.0000
    216 H56R       -0.1950    9.0600   -5.0860 H         1 KPL1        0.0000
    217 H56S       -1.2380    8.0170   -6.0910 H         1 KPL1        0.0000
    218 C57         0.5340    8.7530   -7.1260 C.3       1 KPL1        0.0000
    219 H57R        0.0280    8.2990   -8.0070 H         1 KPL1        0.0000
    220 H57S        1.5850    8.3780   -7.1180 H         1 KPL1        0.0000
    221 C58         0.6030   10.2760   -7.2920 C.3       1 KPL1        0.0000
    222 H58R        1.2670   10.7040   -6.5090 H         1 KPL1        0.0000
    223 H58S       -0.4090   10.7070   -7.1510 H         1 KPL1        0.0000
    224 C59         1.1360   10.6610   -8.6800 C.3       1 KPL1        0.0000
    225 H59R        0.4530   10.2340   -9.4490 H         1 KPL1        0.0000
    226 H59S        2.1370   10.1990   -8.8300 H         1 KPL1        0.0000
    227 C510        1.2400   12.1760   -8.8990 C.3       1 KPL1        0.0000
    228 H510        1.9160   12.6210   -8.1370 H         1 KPL1        0.0000
    229 H510        0.2330   12.6170   -8.7450 H         1 KPL1        0.0000
    230 C511        1.7470   12.5310  -10.3070 C.3       1 KPL1        0.0000
    231 H511        1.2930   11.8310  -11.0460 H         1 KPL1        0.0000
    232 H511        2.8490   12.3840  -10.3390 H         1 KPL1        0.0000
    233 C512        1.3990   13.9620  -10.7440 C.3       1 KPL1        0.0000
    234 H512        1.6740   14.6900   -9.9500 H         1 KPL1        0.0000
    235 H512        0.2960   14.0170  -10.8770 H         1 KPL1        0.0000
    236 C513        2.0710   14.3720  -12.0640 C.3       1 KPL1        0.0000
    237 H513        1.4480   15.1570  -12.5510 H         1 KPL1        0.0000
    238 H513        2.0920   13.4960  -12.7500 H         1 KPL1        0.0000
    239 C514        3.4870   14.9270  -11.8880 C.3       1 KPL1        0.0000
    240 H514        4.1360   14.1830  -11.3790 H         1 KPL1        0.0000
    241 H514        3.4690   15.8510  -11.2710 H         1 KPL1        0.0000
    242 H514        3.9400   15.1740  -12.8720 H         1 KPL1        0.0000
    243 C33         2.9500    6.7010    1.2460 C.3       1 KPL1        0.0000
    244 H33R        3.8720    7.2530    1.5500 H         1 KPL1        0.0000
    245 O33         1.9410    7.0220    2.1830 O.3       1 KPL1        0.0000
    246 HO33        1.0990    6.5900    1.9960 H         1 KPL1        0.0000
    247 C34         2.5470    7.1930   -0.1580 C.3       1 KPL1        0.0000
    248 H34R        1.5980    6.7090   -0.4730 H         1 KPL1        0.0000
    249 H34S        3.3350    6.8780   -0.8740 H         1 KPL1        0.0000
    250 C35         2.3620    8.7170   -0.2440 C.3       1 KPL1        0.0000
    251 H35R        3.2840    9.2320    0.1040 H         1 KPL1        0.0000
    252 H35S        1.5410    9.0030    0.4540 H         1 KPL1        0.0000
    253 C36         2.0010    9.1980   -1.6580 C.3       1 KPL1        0.0000
    254 H36R        1.6250    8.3320   -2.2500 H         1 KPL1        0.0000
    255 H36S        2.9150    9.5760   -2.1660 H         1 KPL1        0.0000
    256 C37         0.9080   10.2780   -1.6440 C.3       1 KPL1        0.0000
    257 H37R        1.2210   11.1200   -0.9890 H         1 KPL1        0.0000
    258 H37S        0.0010    9.8220   -1.1820 H         1 KPL1        0.0000
    259 C38         0.5220   10.8020   -3.0390 C.3       1 KPL1        0.0000
    260 H38R       -0.5870   10.7330   -3.1290 H         1 KPL1        0.0000
    261 H38S        0.9710   10.1470   -3.8150 H         1 KPL1        0.0000
    262 C39         0.9320   12.2590   -3.3120 C.3       1 KPL1        0.0000
    263 H39R        1.9720   12.2760   -3.7080 H         1 KPL1        0.0000
    264 H39S        0.9290   12.8230   -2.3530 H         1 KPL1        0.0000
    265 C310       -0.0090   12.9890   -4.2890 C.3       1 KPL1        0.0000
    266 H310       -1.0590   12.9040   -3.9290 H         1 KPL1        0.0000
    267 H310        0.0480   12.4930   -5.2830 H         1 KPL1        0.0000
    268 C311        0.3450   14.4800   -4.4350 C.3       1 KPL1        0.0000
    269 H311        1.4510   14.5520   -4.5470 H         1 KPL1        0.0000
    270 H311        0.0710   15.0190   -3.5020 H         1 KPL1        0.0000
    271 C312       -0.2960   15.1720   -5.6520 C.3       1 KPL1        0.0000
    272 H312       -0.7480   14.4120   -6.3250 H         1 KPL1        0.0000
    273 H312        0.5090   15.6820   -6.2300 H         1 KPL1        0.0000
    274 C313       -1.3550   16.2280   -5.3030 C.3       1 KPL1        0.0000
    275 H313       -0.9090   16.9840   -4.6170 H         1 KPL1        0.0000
    276 H313       -2.1950   15.7360   -4.7630 H         1 KPL1        0.0000
    277 C314       -1.8970   16.9420   -6.5480 C.3       1 KPL1        0.0000
    278 H314       -2.2410   16.1960   -7.2950 H         1 KPL1        0.0000
    279 H314       -1.1010   17.5620   -7.0150 H         1 KPL1        0.0000
    280 H314       -2.7530   17.6030   -6.2960 H         1 KPL1        0.0000
    281 C11         4.0200    1.7090   -1.3010 C.2       1 KPL1        0.0000
    282 O11         3.7310    2.8670   -1.5890 O.2       1 KPL1        0.0000
    283 C12         5.0300    0.8910   -2.0840 C.3       1 KPL1        0.0000
    284 H12R        4.4440    0.1750   -2.6980 H         1 KPL1        0.0000
    285 H12S        5.6430    0.2940   -1.3770 H         1 KPL1        0.0000
    286 C13         5.9140    1.7620   -2.9930 C.3       1 KPL1        0.0000
    287 H13R        5.3980    2.7180   -3.2480 H         1 KPL1        0.0000
    288 O13         6.2640    0.9870   -4.1550 O.3       1 KPL1        0.0000
    289 C21         5.6760    1.3710   -5.2840 C.2       1 KPL1        0.0000
    290 O21         4.9210    2.3060   -5.4120 O.2       1 KPL1        0.0000
    291 C22         6.1090    0.4550   -6.4360 C.3       1 KPL1        0.0000
    292 H22S        5.2260    0.3250   -7.0960 H         1 KPL1        0.0000
    293 H22R        6.3750   -0.5340   -6.0100 H         1 KPL1        0.0000
    294 C23         7.3000    1.0220   -7.2520 C.3       1 KPL1        0.0000
    295 H23R        7.6430    0.2240   -7.9530 H         1 KPL1        0.0000
    296 H23S        8.1530    1.2510   -6.5770 H         1 KPL1        0.0000
    297 C24         6.9510    2.2580   -8.1020 C.3       1 KPL1        0.0000
    298 H24R        6.6000    3.0840   -7.4440 H         1 KPL1        0.0000
    299 H24S        6.1120    1.9950   -8.7850 H         1 KPL1        0.0000
    300 C25         8.1370    2.7580   -8.9480 C.3       1 KPL1        0.0000
    301 H25R        8.6360    1.8800   -9.4180 H         1 KPL1        0.0000
    302 H25S        8.8780    3.2500   -8.2800 H         1 KPL1        0.0000
    303 C26         7.7340    3.7300  -10.0740 C.3       1 KPL1        0.0000
    304 H26R        7.2090    4.6080   -9.6360 H         1 KPL1        0.0000
    305 H26S        7.0190    3.2150  -10.7530 H         1 KPL1        0.0000
    306 C27         8.9420    4.2280  -10.8880 C.3       1 KPL1        0.0000
    307 H27R        9.5660    3.3600  -11.1970 H         1 KPL1        0.0000
    308 H27S        9.5610    4.8730  -10.2250 H         1 KPL1        0.0000
    309 C28         8.5610    5.0300  -12.1450 C.3       1 KPL1        0.0000
    310 H28R        7.6740    5.6640  -11.9230 H         1 KPL1        0.0000
    311 H28S        8.2740    4.3220  -12.9540 H         1 KPL1        0.0000
    312 C29         9.6990    5.9440  -12.6340 C.3       1 KPL1        0.0000
    313 H29R       10.6230    5.3400  -12.7740 H         1 KPL1        0.0000
    314 H29S        9.9090    6.7030  -11.8460 H         1 KPL1        0.0000
    315 C210        9.3720    6.6720  -13.9480 C.3       1 KPL1        0.0000
    316 H210        8.4510    7.2800  -13.8060 H         1 KPL1        0.0000
    317 H210        9.1640    5.9140  -14.7370 H         1 KPL1        0.0000
    318 C211       10.5140    7.5840  -14.4240 C.3       1 KPL1        0.0000
    319 H211       11.4110    6.9550  -14.6210 H         1 KPL1        0.0000
    320 H211       10.7780    8.3010  -13.6140 H         1 KPL1        0.0000
    321 C212       10.1650    8.3770  -15.6930 C.3       1 KPL1        0.0000
    322 H212        9.4340    9.1740  -15.4280 H         1 KPL1        0.0000
    323 H212        9.6740    7.7020  -16.4290 H         1 KPL1        0.0000
    324 C213       11.3950    9.0110  -16.3610 C.3       1 KPL1        0.0000
    325 H213       12.0170    8.2010  -16.8050 H         1 KPL1        0.0000
    326 H213       12.0120    9.5240  -15.5890 H         1 KPL1        0.0000
    327 C214       11.0290   10.0280  -17.4540 C.3       1 KPL1        0.0000
    328 H214       10.5240   10.8990  -16.9780 H         1 KPL1        0.0000
    329 H214       10.3060    9.5640  -18.1620 H         1 KPL1        0.0000
    330 C215       12.2530   10.5180  -18.2410 C.3       1 KPL1        0.0000
    331 H215       12.6880    9.6520  -18.7910 H         1 KPL1        0.0000
    332 H215       13.0240   10.8760  -17.5220 H         1 KPL1        0.0000
    333 C216       11.9430   11.6400  -19.2370 C.3       1 KPL1        0.0000
    334 H216       11.5930   12.5500  -18.7030 H         1 KPL1        0.0000
    335 H216       11.1520   11.3250  -19.9510 H         1 KPL1        0.0000
    336 H216       12.8530   11.9070  -19.8180 H         1 KPL1        0.0000
    337 C14         7.2210    2.1320   -2.2660 C.3       1 KPL1        0.0000
    338 H14R        7.6790    1.1870   -1.8990 H         1 KPL1        0.0000
    339 H14S        6.9650    2.7450   -1.3760 H         1 KPL1        0.0000
    340 C15         8.2540    2.8690   -3.1350 C.3       1 KPL1        0.0000
    341 H15R        8.5920    2.1910   -3.9520 H         1 KPL1        0.0000
    342 H15S        9.1400    3.1020   -2.5020 H         1 KPL1        0.0000
    343 C16         7.7360    4.1690   -3.7640 C.3       1 KPL1        0.0000
    344 H16R        7.2680    4.8040   -2.9790 H         1 KPL1        0.0000
    345 H16S        6.9540    3.9350   -4.5200 H         1 KPL1        0.0000
    346 C17         8.8630    4.9550   -4.4440 C.3       1 KPL1        0.0000
    347 H17R        9.4440    4.2710   -5.1030 H         1 KPL1        0.0000
    348 H17S        9.5490    5.3270   -3.6510 H         1 KPL1        0.0000
    349 C18         8.3560    6.1420   -5.2720 C.3       1 KPL1        0.0000
    350 H18R        7.5750    6.6780   -4.6870 H         1 KPL1        0.0000
    351 H18S        7.8810    5.7610   -6.2040 H         1 KPL1        0.0000
    352 C19         9.4750    7.1350   -5.6170 C.3       1 KPL1        0.0000
    353 H19R       10.2670    6.6130   -6.1970 H         1 KPL1        0.0000
    354 H19S        9.9330    7.4950   -4.6670 H         1 KPL1        0.0000
    355 C110        8.9810    8.3520   -6.4130 C.3       1 KPL1        0.0000
    356 H110        8.1830    8.8580   -5.8220 H         1 KPL1        0.0000
    357 H110        8.5300    8.0160   -7.3720 H         1 KPL1        0.0000
    358 C111       10.1050    9.3610   -6.7010 C.3       1 KPL1        0.0000
    359 H111       10.8690    8.8970   -7.3630 H         1 KPL1        0.0000
    360 H111       10.6000    9.6170   -5.7370 H         1 KPL1        0.0000
    361 C112        9.5920   10.6580   -7.3440 C.3       1 KPL1        0.0000
    362 H112        8.7360   11.0200   -6.7340 H         1 KPL1        0.0000
    363 H112        9.2190   10.4410   -8.3690 H         1 KPL1        0.0000
    364 C113       10.6480   11.7740   -7.4000 C.3       1 KPL1        0.0000
    365 H113       11.5180   11.4260   -8.0030 H         1 KPL1        0.0000
    366 H113       11.0070   11.9640   -6.3620 H         1 KPL1        0.0000
    367 C114       10.1250   13.0900   -7.9850 C.3       1 KPL1        0.0000
    368 H114        9.2130   13.4170   -7.4420 H         1 KPL1        0.0000
    369 H114        9.8710   12.9650   -9.0600 H         1 KPL1        0.0000
    370 H114       10.8850   13.8950   -7.8930 H         1 KPL1        0.0000
@<TRIPOS>BOND
     1  335  333 1 
     2  336  333 1 
     3  333  334 1 
     4  333  330 1 
     5  331  330 1 
     6  330  332 1 
     7  330  327 1 
     8  329  327 1 
     9  122  121 1 
    10  124  121 1 
    11  327  328 1 
    12  327  324 1 
    13  121  123 1 
    14  121  118 1 
    15  120  118 1 
    16  325  324 1 
    17  323  321 1 
    18  324  321 1 
    19  324  326 1 
    20  118  119 1 
    21  118  115 1 
    22  116  115 1 
    23  321  322 1 
    24  321  318 1 
    25  115  117 1 
    26  115  112 1 
    27  114  112 1 
    28  110  109 1 
    29  317  315 1 
    30  112  109 1 
    31  112  113 1 
    32  319  318 1 
    33  318  315 1 
    34  318  320 1 
    35  108  106 1 
    36  109  106 1 
    37  109  111 1 
    38  315  316 1 
    39  315  312 1 
    40  105  103 1 
    41  106  103 1 
    42  106  107 1 
    43  103  104 1 
    44  103  100 1 
    45  311  309 1 
    46  101  100 1 
    47  242  239 1 
    48  313  312 1 
    49  238  236 1 
    50  312  309 1 
    51  312  314 1 
    52  206  205 1 
    53  237  236 1 
    54  158  155 1 
    55  153  152 1 
    56  100   97 1 
    57  100  102 1 
    58   99   97 1 
    59  309  310 1 
    60  309  306 1 
    61  236  239 1 
    62  236  233 1 
    63  154  152 1 
    64  239  240 1 
    65  239  241 1 
    66  207  205 1 
    67  208  205 1 
    68  205  202 1 
    69  152  155 1 
    70  152  149 1 
    71  155  157 1 
    72  155  156 1 
    73   95   94 1 
    74   97   94 1 
    75   97   98 1 
    76  148  146 1 
    77  200  199 1 
    78  307  306 1 
    79  231  230 1 
    80  147  146 1 
    81  306  308 1 
    82  306  303 1 
    83  235  233 1 
    84   94   96 1 
    85   94   91 1 
    86  305  303 1 
    87  233  230 1 
    88  233  234 1 
    89   93   91 1 
    90  146  149 1 
    91  146  143 1 
    92  202  204 1 
    93  202  199 1 
    94  202  203 1 
    95  232  230 1 
    96  230  227 1 
    97  199  201 1 
    98  199  196 1 
    99  149  151 1 
   100  149  150 1 
   101  303  304 1 
   102  303  300 1 
   103  194  193 1 
   104   91   92 1 
   105   91   88 1 
   106  144  143 1 
   107  225  224 1 
   108  301  300 1 
   109  143  145 1 
   110  143  140 1 
   111  198  196 1 
   112  196  193 1 
   113  196  197 1 
   114  369  367 1 
   115  193  195 1 
   116  193  190 1 
   117  142  140 1 
   118  300  302 1 
   119  300  297 1 
   120  227  229 1 
   121  227  224 1 
   122  227  228 1 
   123  226  224 1 
   124  299  297 1 
   125   89   88 1 
   126  224  221 1 
   127   88   90 1 
   128   88   85 1 
   129  363  361 1 
   130  140  141 1 
   131  140  137 1 
   132  192  190 1 
   133  297  298 1 
   134  297  294 1 
   135  219  218 1 
   136  365  364 1 
   137  367  370 1 
   138  367  368 1 
   139  367  364 1 
   140  295  294 1 
   141   87   85 1 
   142   86   85 1 
   143  190  191 1 
   144  190  187 1 
   145  188  187 1 
   146  138  137 1 
   147   85   83 1 
   148  136  134 1 
   149  364  361 1 
   150  364  366 1 
   151  357  355 1 
   152  359  358 1 
   153  361  362 1 
   154  361  358 1 
   155  137  134 1 
   156  137  139 1 
   157  278  277 1 
   158  221  223 1 
   159  221  218 1 
   160  221  222 1 
   161  294  296 1 
   162  294  291 1 
   163  218  220 1 
   164  218  215 1 
   165  187  189 1 
   166  187  184 1 
   167  292  291 1 
   168  279  277 1 
   169  182  181 1 
   170  134  135 1 
   171  134  131 1 
   172  132  131 1 
   173  358  355 1 
   174  358  360 1 
   175  183  181 1 
   176  277  280 1 
   177  277  274 1 
   178  291  293 1 
   179  291  289 1 
   180  355  356 1 
   181  355  352 1 
   182  272  271 1 
   183  273  271 1 
   184  351  349 1 
   185  353  352 1 
   186   83   82 1 
   187   83   84 2 
   188  181  184 1 
   189  181  178 1 
   190  213  212 1 
   191  217  215 1 
   192  131  133 1 
   193  131  128 1 
   194  184  186 1 
   195  184  185 1 
   196  215  212 1 
   197  215  216 1 
   198   82   80 1 
   199  271  274 1 
   200  271  268 1 
   201  176  175 1 
   202  352  349 1 
   203  352  354 1 
   204  177  175 1 
   205  168  167 2 
   206  290  289 2 
   207  274  276 1 
   208  274  275 1 
   209  212  214 1 
   210  212  209 1 
   211  289  288 1 
   212  267  265 1 
   213  349  350 1 
   214  349  346 1 
   215  347  346 1 
   216  175  178 1 
   217  175  172 1 
   218  178  180 1 
   219  178  179 1 
   220  126  125 1 
   221  128  130 1 
   222  128  125 1 
   223  128  129 1 
   224   49   47 1 
   225  269  268 1 
   226  170  169 1 
   227  345  343 1 
   228  346  343 1 
   229  346  348 1 
   230   80  125 1 
   231   80   47 1 
   232   80   81 1 
   233  268  265 1 
   234  268  270 1 
   235  165  164 1 
   236  211  209 1 
   237   48   47 1 
   238  265  266 1 
   239  265  262 1 
   240  167  169 1 
   241  167  166 1 
   242  125  127 1 
   243  288  286 1 
   244  209  164 1 
   245  209  210 1 
   246   47   45 1 
   247  341  340 1 
   248  261  259 1 
   249  169  172 1 
   250  169  171 1 
   251  343  340 1 
   252  343  344 1 
   253   26   24 1 
   254  263  262 1 
   255  172  173 1 
   256  172  174 1 
   257  164  166 1 
   258  164  161 1 
   259   25   24 1 
   260  160  159 2 
   261   39   38 1 
   262  262  259 1 
   263  262  264 1 
   264  287  286 1 
   265  340  342 1 
   266  340  337 1 
   267  260  259 1 
   268   37   36 1 
   269  259  256 1 
   270  286  337 1 
   271  286  283 1 
   272   24   36 1 
   273   24   27 1 
   274  284  283 1 
   275   21   19 2 
   276   45   43 1 
   277   45   46 2 
   278  159  161 1 
   279  159   52 am
   280   38   36 1 
   281   38   40 1 
   282   38   41 1 
   283   36   32 1 
   284   20   19 1 
   285   43   42 1 
   286  161  162 1 
   287  161  163 1 
   288  337  338 1 
   289  337  339 1 
   290  254  253 1 
   291  255  253 1 
   292  283  285 1 
   293  283  281 1 
   294   27   22 1 
   295   51   50 1 
   296   19   18 1 
   297   19   17 1 
   298  253  256 1 
   299  253  250 1 
   300  256  258 1 
   301  256  257 1 
   302  282  281 2 
   303   16   15 1 
   304  281   78 am
   305   52   50 1 
   306   52   53 1 
   307   33   32 1 
   308   62   61 1 
   309   50   42 1 
   310   50    9 1 
   311   42   15 1 
   312   42   44 1 
   313   32   34 1 
   314   32   28 1 
   315   77   76 1 
   316  249  247 1 
   317   22   18 1 
   318   22   28 1 
   319   22   23 1 
   320   17   15 1 
   321   15    6 1 
   322  248  247 1 
   323   65   67 2 
   324   34   35 1 
   325   78   76 1 
   326   78   79 1 
   327  250  247 1 
   328  250  251 1 
   329  250  252 1 
   330  247  243 1 
   331   28   29 1 
   332   28   30 1 
   333   76   61 1 
   334   76   68 1 
   335   11    9 1 
   336   11   12 1 
   337   61   60 1 
   338   61   63 1 
   339   60   58 1 
   340   55   54 1 
   341    9    7 1 
   342    9   10 1 
   343   66   67 1 
   344    5    4 1 
   345    7    6 1 
   346   74   73 1 
   347    6    4 1 
   348    6    8 1 
   349   67   63 1 
   350   67   64 1 
   351   13   12 1 
   352   72   71 2 
   353   71   70 1 
   354   71   73 1 
   355   12   58 1 
   356   12   14 1 
   357   58   54 1 
   358   58   59 1 
   359   68   54 1 
   360   68   70 1 
   361   68   69 1 
   362   54   56 1 
   363   30   31 1 
   364  243   73 1 
   365  243  244 1 
   366  243  245 1 
   367    4    1 1 
   368    4    2 1 
   369   73   75 1 
   370  246  245 1 
   371   57   56 1 
   372    3    2 1 
