@<TRIPOS>MOLECULE
C:\Users\Praveer\PycharmProjects\pdb_to_mol2_converter\data\pdb\kplipb.pdb
  303   304     0     0     0
SMALL
GASTEIGER

@<TRIPOS>ATOM
      1 HB6S       -7.9520    2.3370    0.9150 H         1 KPL1        0.0000
      2 OB6        -6.7880    0.8340    1.7900 O.3       1 KPL1        0.0000
      3 HOB6       -5.9760    0.3710    1.5560 H         1 KPL1        0.0000
      4 CB6        -7.0790    1.6850    0.6740 C.3       1 KPL1        0.0000
      5 HB6R       -7.3660    1.0660   -0.2060 H         1 KPL1        0.0000
      6 CB5        -5.8760    2.5350    0.3210 C.3       1 KPL1        0.0000
      7 OB5        -4.7300    1.6810    0.1660 O.3       1 KPL1        0.0000
      8 HB5        -5.7040    3.2470    1.1640 H         1 KPL1        0.0000
      9 CB1        -3.5370    2.4510    0.0080 C.3       1 KPL1        0.0000
     10 HB1        -3.3880    3.1190    0.8860 H         1 KPL1        0.0000
     11 OA6        -2.4150    1.6340   -0.1520 O.3       1 KPL1        0.0000
     12 CA6        -2.1340    0.8470    1.0020 C.3       1 KPL1        0.0000
     13 HA6R       -2.5640   -0.1690    0.8680 H         1 KPL1        0.0000
     14 HA6S       -2.5830    1.2950    1.9160 H         1 KPL1        0.0000
     15 CB4        -6.0290    3.3110   -0.9700 C.3       1 KPL1        0.0000
     16 HB4        -6.1460    2.5680   -1.7990 H         1 KPL1        0.0000
     17 OB4        -7.1620    4.1510   -0.8070 O.3       1 KPL1        0.0000
     18 PB         -8.4270    4.1540   -1.8730 P.3       1 KPL1        0.0000
     19 OPB4       -8.4910    5.5970   -2.3560 O.3       1 KPL1        0.0000
     20 OPB3       -9.6210    3.7110   -1.0390 O.3       1 KPL1        0.0000
     21 OPB2       -8.0670    3.1810   -2.9870 O.2       1 KPL1        0.0000
     22 CB3        -4.8020    4.1470   -1.2370 C.3       1 KPL1        0.0000
     23 OB3        -4.9060    4.7380   -2.5230 O.3       1 KPL1        0.0000
     24 HB3        -4.6730    4.9000   -0.4190 H         1 KPL1        0.0000
     25 C71        -5.4560    5.9580   -2.5680 C.2       1 KPL1        0.0000
     26 O71        -5.1830    6.8410   -1.7630 O.2       1 KPL1        0.0000
     27 C72        -5.7020    6.2050   -4.0450 C.3       1 KPL1        0.0000
     28 H72R       -6.7180    5.8010   -4.2560 H         1 KPL1        0.0000
     29 H72S       -4.9720    5.6310   -4.6490 H         1 KPL1        0.0000
     30 CB2        -3.5780    3.2720   -1.2570 C.3       1 KPL1        0.0000
     31 HB2        -3.6930    2.5560   -2.1120 H         1 KPL1        0.0000
     32 NB2        -2.3450    4.0380   -1.4220 N.am      1 KPL1        0.0000
     33 HNB2       -2.0150    4.4980   -0.6100 H         1 KPL1        0.0000
     34 CA4         0.0300    2.1420    1.1830 C.3       1 KPL1        0.0000
     35 HA4        -0.2510    2.6850    0.2490 H         1 KPL1        0.0000
     36 OA4        -0.4540    2.8890    2.2970 O.3       1 KPL1        0.0000
     37 HOA4       -0.2090    3.8130    2.1260 H         1 KPL1        0.0000
     38 CA5        -0.6300    0.7700    1.1310 C.3       1 KPL1        0.0000
     39 HA5        -0.3790    0.1830    2.0450 H         1 KPL1        0.0000
     40 OA5        -0.1570    0.0540   -0.0160 O.3       1 KPL1        0.0000
     41 CA1         1.2580   -0.1690   -0.0090 C.3       1 KPL1        0.0000
     42 HA1         1.4540   -0.6710   -0.9890 H         1 KPL1        0.0000
     43 OA1         1.6230   -1.0070    1.0790 O.3       1 KPL1        0.0000
     44 OPA2        2.7530   -3.0150    2.1080 O.3       1 KPL1        0.0000
     45 OPA3        2.5520   -2.8050   -0.4310 O.2       1 KPL1        0.0000
     46 OPA4        4.1110   -1.2660    0.8430 O.3       1 KPL1        0.0000
     47 PA          2.8390   -2.1080    0.8840 P.3       1 KPL1        0.0000
     48 CA3         1.5410    1.9950    1.1920 C.3       1 KPL1        0.0000
     49 HA3         1.7980    1.3910    2.1000 H         1 KPL1        0.0000
     50 OA3         2.3900    3.1480    1.1990 O.3       1 KPL1        0.0000
     51 C31         2.0160    4.3910    1.0910 C.2       1 KPL1        0.0000
     52 O31         0.8760    4.8290    1.0740 O.2       1 KPL1        0.0000
     53 C32         3.2690    5.2380    1.2910 C.3       1 KPL1        0.0000
     54 H32R        3.9820    4.9660    0.4870 H         1 KPL1        0.0000
     55 H32S        3.7200    4.9690    2.2680 H         1 KPL1        0.0000
     56 CA2         1.9440    1.1820   -0.0160 C.3       1 KPL1        0.0000
     57 HA2         1.5310    1.7330   -0.9030 H         1 KPL1        0.0000
     58 NA2         3.3660    1.0250   -0.2150 N.am      1 KPL1        0.0000
     59 HNA2        3.7150    0.1500    0.1910 H         1 KPL1        0.0000
     60 C73        -5.6460    7.6850   -4.4320 C.3       1 KPL1        0.0000
     61 H73R       -6.3890    8.2620   -3.8260 H         1 KPL1        0.0000
     62 O73        -5.9330    7.6690   -5.8310 O.3       1 KPL1        0.0000
     63 C81        -7.1650    7.9830   -6.1800 C.2       1 KPL1        0.0000
     64 O81        -7.9390    8.6690   -5.5310 O.2       1 KPL1        0.0000
     65 C82        -7.3670    7.6990   -7.6780 C.3       1 KPL1        0.0000
     66 H82R       -7.9510    8.5550   -8.0740 H         1 KPL1        0.0000
     67 H82S       -8.0090    6.7990   -7.7540 H         1 KPL1        0.0000
     68 C83        -6.0770    7.5020   -8.5180 C.3       1 KPL1        0.0000
     69 H83R       -5.8970    6.4150   -8.6800 H         1 KPL1        0.0000
     70 H83S       -5.1830    7.9050   -7.9920 H         1 KPL1        0.0000
     71 C84        -6.1420    8.2450   -9.8580 C.3       1 KPL1        0.0000
     72 H84R       -6.2950    9.3260   -9.6350 H         1 KPL1        0.0000
     73 H84S       -7.0200    7.9020  -10.4460 H         1 KPL1        0.0000
     74 C85        -4.8600    8.0920  -10.6890 C.3       1 KPL1        0.0000
     75 H85R       -5.0240    7.3220  -11.4740 H         1 KPL1        0.0000
     76 H85S       -4.0350    7.7280  -10.0360 H         1 KPL1        0.0000
     77 C86        -4.4240    9.4160  -11.3310 C.3       1 KPL1        0.0000
     78 H86R       -4.1990   10.1520  -10.5250 H         1 KPL1        0.0000
     79 H86S       -5.2720    9.8200  -11.9280 H         1 KPL1        0.0000
     80 C87        -3.1900    9.2810  -12.2360 C.3       1 KPL1        0.0000
     81 H87R       -3.3190    8.4200  -12.9290 H         1 KPL1        0.0000
     82 H87S       -2.3040    9.0700  -11.5970 H         1 KPL1        0.0000
     83 C88        -2.9460   10.5530  -13.0630 C.3       1 KPL1        0.0000
     84 H88R       -3.3300   11.4300  -12.4920 H         1 KPL1        0.0000
     85 H88S       -3.5400   10.4880  -14.0020 H         1 KPL1        0.0000
     86 C89        -1.4710   10.8270  -13.4000 C.3       1 KPL1        0.0000
     87 H89R       -0.9210   11.0770  -12.4650 H         1 KPL1        0.0000
     88 H89S       -1.4290   11.7220  -14.0610 H         1 KPL1        0.0000
     89 C810       -0.7550    9.6640  -14.0990 C.3       1 KPL1        0.0000
     90 H810       -1.3970    9.2830  -14.9250 H         1 KPL1        0.0000
     91 H810       -0.6060    8.8310  -13.3760 H         1 KPL1        0.0000
     92 C811        0.6020   10.0810  -14.6870 C.3       1 KPL1        0.0000
     93 H811        1.2350   10.5370  -13.8940 H         1 KPL1        0.0000
     94 H811        0.4240   10.8600  -15.4630 H         1 KPL1        0.0000
     95 C812        1.3490    8.9040  -15.3300 C.3       1 KPL1        0.0000
     96 H812        0.6450    8.3690  -16.0070 H         1 KPL1        0.0000
     97 H812        1.6670    8.1880  -14.5410 H         1 KPL1        0.0000
     98 C813        2.5700    9.3390  -16.1510 C.3       1 KPL1        0.0000
     99 H813        3.3560    9.7300  -15.4650 H         1 KPL1        0.0000
    100 H813        2.2660   10.1760  -16.8210 H         1 KPL1        0.0000
    101 C814        3.1480    8.2080  -17.0070 C.3       1 KPL1        0.0000
    102 H814        2.3710    7.8180  -17.7010 H         1 KPL1        0.0000
    103 H814        3.4970    7.3690  -16.3680 H         1 KPL1        0.0000
    104 H814        4.0050    8.5720  -17.6130 H         1 KPL1        0.0000
    105 C74        -4.2560    8.3500   -4.2660 C.3       1 KPL1        0.0000
    106 H74R       -3.5040    7.7760   -4.8470 H         1 KPL1        0.0000
    107 H74S       -3.9650    8.3000   -3.1960 H         1 KPL1        0.0000
    108 C75        -4.2370    9.8350   -4.6920 C.3       1 KPL1        0.0000
    109 H75R       -3.7260   10.4450   -3.9140 H         1 KPL1        0.0000
    110 H75S       -5.2940   10.1820   -4.7510 H         1 KPL1        0.0000
    111 C76        -3.5500   10.0830   -6.0440 C.3       1 KPL1        0.0000
    112 H76R       -3.7240    9.2040   -6.7040 H         1 KPL1        0.0000
    113 H76S       -2.4530   10.1530   -5.8740 H         1 KPL1        0.0000
    114 C77        -4.0520   11.3430   -6.7740 C.3       1 KPL1        0.0000
    115 H77R       -4.7620   11.9020   -6.1280 H         1 KPL1        0.0000
    116 H77S       -4.6130   11.0050   -7.6760 H         1 KPL1        0.0000
    117 C78        -2.9190   12.2830   -7.2140 C.3       1 KPL1        0.0000
    118 H78R       -2.1330   11.6490   -7.6800 H         1 KPL1        0.0000
    119 H78S       -2.4670   12.7800   -6.3280 H         1 KPL1        0.0000
    120 C79        -3.3470   13.3320   -8.2560 C.3       1 KPL1        0.0000
    121 H79R       -3.8020   14.2160   -7.7580 H         1 KPL1        0.0000
    122 H79S       -4.1230   12.8740   -8.9110 H         1 KPL1        0.0000
    123 C710       -2.1710   13.7480   -9.1540 C.3       1 KPL1        0.0000
    124 H710       -1.6870   12.8050   -9.5040 H         1 KPL1        0.0000
    125 H710       -1.4130   14.3120   -8.5710 H         1 KPL1        0.0000
    126 C711       -2.5660   14.5290  -10.4170 C.3       1 KPL1        0.0000
    127 H711       -3.5430   14.1650  -10.8040 H         1 KPL1        0.0000
    128 H711       -1.8050   14.3090  -11.2010 H         1 KPL1        0.0000
    129 C712       -2.6040   16.0540  -10.2410 C.3       1 KPL1        0.0000
    130 H712       -1.7320   16.3930   -9.6390 H         1 KPL1        0.0000
    131 H712       -3.5240   16.3310   -9.6820 H         1 KPL1        0.0000
    132 C713       -2.5700   16.7770  -11.5970 C.3       1 KPL1        0.0000
    133 H713       -3.0970   16.1470  -12.3500 H         1 KPL1        0.0000
    134 H713       -1.5100   16.8610  -11.9300 H         1 KPL1        0.0000
    135 C714       -3.2230   18.1600  -11.5870 C.3       1 KPL1        0.0000
    136 H714       -2.7430   18.8190  -10.8330 H         1 KPL1        0.0000
    137 H714       -4.3040   18.0720  -11.3420 H         1 KPL1        0.0000
    138 H714       -3.1310   18.6390  -12.5860 H         1 KPL1        0.0000
    139 C51        -1.5570    4.0200   -2.5060 C.2       1 KPL1        0.0000
    140 O51        -1.8980    3.5780   -3.5940 O.2       1 KPL1        0.0000
    141 C52        -0.1550    4.5390   -2.2810 C.3       1 KPL1        0.0000
    142 H52R        0.4640    3.6880   -1.9220 H         1 KPL1        0.0000
    143 H52S       -0.1610    5.3250   -1.5020 H         1 KPL1        0.0000
    144 C53         0.4650    5.0860   -3.5750 C.3       1 KPL1        0.0000
    145 H53R        0.3660    4.3140   -4.3780 H         1 KPL1        0.0000
    146 O53         1.8290    5.3840   -3.2420 O.3       1 KPL1        0.0000
    147 C61         2.7460    4.8490   -4.0420 C.2       1 KPL1        0.0000
    148 O61         2.5300    4.2560   -5.0820 O.2       1 KPL1        0.0000
    149 C62         4.1420    5.2470   -3.5660 C.3       1 KPL1        0.0000
    150 H62R        4.8770    4.7330   -4.2150 H         1 KPL1        0.0000
    151 H62S        4.2590    4.8670   -2.5320 H         1 KPL1        0.0000
    152 C63         4.3890    6.7680   -3.5610 C.3       1 KPL1        0.0000
    153 H63R        5.3440    6.9610   -3.0180 H         1 KPL1        0.0000
    154 H63S        3.5840    7.2900   -3.0020 H         1 KPL1        0.0000
    155 C64         4.5150    7.3840   -4.9570 C.3       1 KPL1        0.0000
    156 H64R        3.5870    7.2120   -5.5440 H         1 KPL1        0.0000
    157 H64S        5.3510    6.8960   -5.5060 H         1 KPL1        0.0000
    158 C65         4.7790    8.8890   -4.8530 C.3       1 KPL1        0.0000
    159 H65R        5.6750    9.0450   -4.2100 H         1 KPL1        0.0000
    160 H65S        3.9160    9.3840   -4.3530 H         1 KPL1        0.0000
    161 C66         5.0310    9.5540   -6.2060 C.3       1 KPL1        0.0000
    162 H66R        4.1400    9.4400   -6.8630 H         1 KPL1        0.0000
    163 H66S        5.8830    9.0360   -6.7010 H         1 KPL1        0.0000
    164 C67         5.3650   11.0420   -6.0530 C.3       1 KPL1        0.0000
    165 H67R        6.0140   11.1910   -5.1600 H         1 KPL1        0.0000
    166 H67S        4.4200   11.6010   -5.8690 H         1 KPL1        0.0000
    167 C68         6.0900   11.6090   -7.2790 C.3       1 KPL1        0.0000
    168 H68R        5.9440   10.9290   -8.1480 H         1 KPL1        0.0000
    169 H68S        7.1830   11.6440   -7.0660 H         1 KPL1        0.0000
    170 C69         5.6020   13.0080   -7.6650 C.3       1 KPL1        0.0000
    171 H69R        5.7060   13.6820   -6.7850 H         1 KPL1        0.0000
    172 H69S        4.5220   12.9650   -7.9340 H         1 KPL1        0.0000
    173 C610        6.3960   13.5850   -8.8410 C.3       1 KPL1        0.0000
    174 H610        6.1210   13.0380   -9.7710 H         1 KPL1        0.0000
    175 H610        7.4810   13.4210   -8.6610 H         1 KPL1        0.0000
    176 C611        6.1670   15.0870   -9.0280 C.3       1 KPL1        0.0000
    177 H611        6.5470   15.6240   -8.1300 H         1 KPL1        0.0000
    178 H611        5.0760   15.2890   -9.1080 H         1 KPL1        0.0000
    179 C612        6.8720   15.6280  -10.2780 C.3       1 KPL1        0.0000
    180 H612        6.4310   15.1430  -11.1770 H         1 KPL1        0.0000
    181 H612        7.9510   15.3550  -10.2450 H         1 KPL1        0.0000
    182 C613        6.7450   17.1490  -10.4110 C.3       1 KPL1        0.0000
    183 H613        7.3410   17.6290   -9.6010 H         1 KPL1        0.0000
    184 H613        5.6790   17.4360  -10.2570 H         1 KPL1        0.0000
    185 C614        7.2110   17.6750  -11.7700 C.3       1 KPL1        0.0000
    186 H614        6.5590   17.2800  -12.5790 H         1 KPL1        0.0000
    187 H614        8.2560   17.3580  -11.9760 H         1 KPL1        0.0000
    188 H614        7.1670   18.7850  -11.7950 H         1 KPL1        0.0000
    189 C54        -0.2180    6.3880   -4.0610 C.3       1 KPL1        0.0000
    190 H54R       -0.2970    7.0990   -3.2100 H         1 KPL1        0.0000
    191 H54S       -1.2480    6.1400   -4.4030 H         1 KPL1        0.0000
    192 C55         0.5460    7.0610   -5.2130 C.3       1 KPL1        0.0000
    193 H55R        0.7380    6.3010   -6.0040 H         1 KPL1        0.0000
    194 H55S        1.5320    7.4040   -4.8270 H         1 KPL1        0.0000
    195 C56        -0.1610    8.2630   -5.8490 C.3       1 KPL1        0.0000
    196 H56R       -0.2610    9.0720   -5.0980 H         1 KPL1        0.0000
    197 H56S       -1.1910    7.9780   -6.1590 H         1 KPL1        0.0000
    198 C57         0.6170    8.7670   -7.0740 C.3       1 KPL1        0.0000
    199 H57R        0.1680    8.3060   -7.9820 H         1 KPL1        0.0000
    200 H57S        1.6710    8.4100   -7.0160 H         1 KPL1        0.0000
    201 C58         0.6560   10.2930   -7.2340 C.3       1 KPL1        0.0000
    202 H58R        1.4020   10.7170   -6.5250 H         1 KPL1        0.0000
    203 H58S       -0.3330   10.7250   -6.9750 H         1 KPL1        0.0000
    204 C59         1.0210   10.6780   -8.6740 C.3       1 KPL1        0.0000
    205 H59R        0.1890   10.3660   -9.3480 H         1 KPL1        0.0000
    206 H59S        1.9280   10.1080   -8.9780 H         1 KPL1        0.0000
    207 C510        1.2920   12.1720   -8.8800 C.3       1 KPL1        0.0000
    208 H510        2.0770   12.5190   -8.1730 H         1 KPL1        0.0000
    209 H510        0.3640   12.7380   -8.6520 H         1 KPL1        0.0000
    210 C511        1.7440   12.4720  -10.3180 C.3       1 KPL1        0.0000
    211 H511        1.2390   11.7670  -11.0180 H         1 KPL1        0.0000
    212 H511        2.8390   12.2870  -10.3950 H         1 KPL1        0.0000
    213 C512        1.4180   13.9000  -10.7730 C.3       1 KPL1        0.0000
    214 H512        1.6540   14.6250   -9.9630 H         1 KPL1        0.0000
    215 H512        0.3230   13.9540  -10.9600 H         1 KPL1        0.0000
    216 C513        2.1640   14.3090  -12.0500 C.3       1 KPL1        0.0000
    217 H513        1.5440   15.0470  -12.6090 H         1 KPL1        0.0000
    218 H513        2.2860   13.4180  -12.7060 H         1 KPL1        0.0000
    219 C514        3.5280   14.9420  -11.7650 C.3       1 KPL1        0.0000
    220 H514        4.1610   14.2490  -11.1710 H         1 KPL1        0.0000
    221 H514        3.4030   15.8820  -11.1840 H         1 KPL1        0.0000
    222 H514        4.0590   15.1830  -12.7100 H         1 KPL1        0.0000
    223 C33         2.9970    6.7510    1.2510 C.3       1 KPL1        0.0000
    224 H33R        3.9520    7.2800    1.4830 H         1 KPL1        0.0000
    225 O33         2.0700    7.0920    2.2630 O.3       1 KPL1        0.0000
    226 HO33        1.2040    6.6870    2.1330 H         1 KPL1        0.0000
    227 C34         2.5040    7.2650   -0.1140 C.3       1 KPL1        0.0000
    228 H34R        1.5210    6.8100   -0.3620 H         1 KPL1        0.0000
    229 H34S        3.2340    6.9280   -0.8820 H         1 KPL1        0.0000
    230 C35         2.3680    8.7960   -0.1980 C.3       1 KPL1        0.0000
    231 H35R        3.3000    9.2850    0.1630 H         1 KPL1        0.0000
    232 H35S        1.5470    9.1110    0.4860 H         1 KPL1        0.0000
    233 C36         2.0580    9.2760   -1.6240 C.3       1 KPL1        0.0000
    234 H36R        1.7380    8.4030   -2.2370 H         1 KPL1        0.0000
    235 H36S        2.9810    9.6880   -2.0870 H         1 KPL1        0.0000
    236 C37         0.9330   10.3160   -1.6750 C.3       1 KPL1        0.0000
    237 H37R        1.2070   11.1930   -1.0490 H         1 KPL1        0.0000
    238 H37S        0.0230    9.8600   -1.2210 H         1 KPL1        0.0000
    239 C38         0.5920   10.7560   -3.1080 C.3       1 KPL1        0.0000
    240 H38R       -0.5050   10.6310   -3.2550 H         1 KPL1        0.0000
    241 H38S        1.1010   10.0860   -3.8360 H         1 KPL1        0.0000
    242 C39         0.9640   12.2130   -3.4190 C.3       1 KPL1        0.0000
    243 H39R        1.9390   12.2370   -3.9550 H         1 KPL1        0.0000
    244 H39S        1.0960   12.7750   -2.4690 H         1 KPL1        0.0000
    245 C310       -0.0990   12.9480   -4.2510 C.3       1 KPL1        0.0000
    246 H310       -1.1020   12.8290   -3.7800 H         1 KPL1        0.0000
    247 H310       -0.1430   12.4820   -5.2590 H         1 KPL1        0.0000
    248 C311        0.2240   14.4450   -4.3720 C.3       1 KPL1        0.0000
    249 H311        1.3320   14.5530   -4.4010 H         1 KPL1        0.0000
    250 H311       -0.1290   14.9770   -3.4600 H         1 KPL1        0.0000
    251 C312       -0.3400   15.1150   -5.6350 C.3       1 KPL1        0.0000
    252 H312       -0.7400   14.3480   -6.3310 H         1 KPL1        0.0000
    253 H312        0.5020   15.6240   -6.1600 H         1 KPL1        0.0000
    254 C313       -1.4180   16.1680   -5.3490 C.3       1 KPL1        0.0000
    255 H313       -1.0210   16.8850   -4.5940 H         1 KPL1        0.0000
    256 H313       -2.3110   15.6730   -4.9040 H         1 KPL1        0.0000
    257 C314       -1.8300   16.9480   -6.6010 C.3       1 KPL1        0.0000
    258 H314       -2.3560   16.2830   -7.3190 H         1 KPL1        0.0000
    259 H314       -0.9350   17.3700   -7.1080 H         1 KPL1        0.0000
    260 H314       -2.5100   17.7860   -6.3360 H         1 KPL1        0.0000
    261 C11         4.0660    1.6440   -1.1620 C.2       1 KPL1        0.0000
    262 O11         3.8250    2.7940   -1.5140 O.2       1 KPL1        0.0000
    263 C12         5.0890    0.7750   -1.8680 C.3       1 KPL1        0.0000
    264 H12R        4.4960   -0.0150   -2.3780 H         1 KPL1        0.0000
    265 H12S        5.7250    0.2570   -1.1230 H         1 KPL1        0.0000
    266 C13         5.9280    1.5770   -2.8790 C.3       1 KPL1        0.0000
    267 H13R        5.3230    2.3800   -3.3550 H         1 KPL1        0.0000
    268 O13         6.3390    0.6830   -3.9010 O.3       1 KPL1        0.0000
    269 HO13        5.6130    0.2520   -4.3590 H         1 KPL1        0.0000
    270 C14         7.1840    2.1810   -2.2150 C.3       1 KPL1        0.0000
    271 H14R        7.6990    1.3500   -1.6820 H         1 KPL1        0.0000
    272 H14S        6.8590    2.9150   -1.4470 H         1 KPL1        0.0000
    273 C15         8.2100    2.8380   -3.1610 C.3       1 KPL1        0.0000
    274 H15R        8.5770    2.0830   -3.8930 H         1 KPL1        0.0000
    275 H15S        9.0810    3.1510   -2.5420 H         1 KPL1        0.0000
    276 C16         7.6770    4.0610   -3.9160 C.3       1 KPL1        0.0000
    277 H16R        7.0550    4.6700   -3.2210 H         1 KPL1        0.0000
    278 H16S        7.0230    3.7170   -4.7480 H         1 KPL1        0.0000
    279 C17         8.8030    4.9480   -4.4710 C.3       1 KPL1        0.0000
    280 H17R        9.4820    4.3370   -5.1050 H         1 KPL1        0.0000
    281 H17S        9.4020    5.3340   -3.6160 H         1 KPL1        0.0000
    282 C18         8.2650    6.1320   -5.2840 C.3       1 KPL1        0.0000
    283 H18R        7.5080    6.6630   -4.6620 H         1 KPL1        0.0000
    284 H18S        7.7460    5.7500   -6.1910 H         1 KPL1        0.0000
    285 C19         9.3430    7.1450   -5.6970 C.3       1 KPL1        0.0000
    286 H19R       10.0730    6.6700   -6.3880 H         1 KPL1        0.0000
    287 H19S        9.8970    7.4660   -4.7860 H         1 KPL1        0.0000
    288 C110        8.7150    8.3810   -6.3550 C.3       1 KPL1        0.0000
    289 H110        7.9120    8.7370   -5.6690 H         1 KPL1        0.0000
    290 H110        8.2260    8.0980   -7.3130 H         1 KPL1        0.0000
    291 C111        9.6790    9.5580   -6.5780 C.3       1 KPL1        0.0000
    292 H111       10.4630    9.5730   -5.7890 H         1 KPL1        0.0000
    293 H111        9.0740   10.4850   -6.4620 H         1 KPL1        0.0000
    294 C112       10.3230    9.5740   -7.9730 C.3       1 KPL1        0.0000
    295 H112        9.5300    9.3940   -8.7350 H         1 KPL1        0.0000
    296 H112       11.0530    8.7380   -8.0500 H         1 KPL1        0.0000
    297 C113       11.0200   10.9000   -8.3260 C.3       1 KPL1        0.0000
    298 H113       11.4620   10.7970   -9.3440 H         1 KPL1        0.0000
    299 H113       11.8620   11.0720   -7.6180 H         1 KPL1        0.0000
    300 C114       10.0960   12.1230   -8.3170 C.3       1 KPL1        0.0000
    301 H114        9.8040   12.3920   -7.2800 H         1 KPL1        0.0000
    302 H114        9.1720   11.9110   -8.8960 H         1 KPL1        0.0000
    303 H114       10.6010   13.0030   -8.7700 H         1 KPL1        0.0000
@<TRIPOS>BOND
     1  102  101 1 
     2  104  101 1 
     3  101  103 1 
     4  101   98 1 
     5  100   98 1 
     6   98   99 1 
     7   98   95 1 
     8   96   95 1 
     9   94   92 1 
    10   95   92 1 
    11   95   97 1 
    12   90   89 1 
    13   92   89 1 
    14   92   93 1 
    15   89   86 1 
    16   89   91 1 
    17   88   86 1 
    18   85   83 1 
    19   86   83 1 
    20   86   87 1 
    21   83   84 1 
    22   83   80 1 
    23   81   80 1 
    24  222  219 1 
    25  218  216 1 
    26  217  216 1 
    27  138  135 1 
    28  186  185 1 
    29  133  132 1 
    30   80   82 1 
    31   80   77 1 
    32  216  219 1 
    33  216  213 1 
    34  187  185 1 
    35  134  132 1 
    36   79   77 1 
    37  188  185 1 
    38  185  182 1 
    39  219  221 1 
    40  219  220 1 
    41  132  135 1 
    42  132  129 1 
    43  135  137 1 
    44  135  136 1 
    45   75   74 1 
    46   77   74 1 
    47   77   78 1 
    48  128  126 1 
    49  180  179 1 
    50  211  210 1 
    51  215  213 1 
    52  127  126 1 
    53  213  210 1 
    54  213  214 1 
    55   74   76 1 
    56   74   71 1 
    57   73   71 1 
    58  126  129 1 
    59  126  123 1 
    60  182  179 1 
    61  182  184 1 
    62  182  183 1 
    63  212  210 1 
    64  210  207 1 
    65  179  181 1 
    66  179  176 1 
    67  129  131 1 
    68  129  130 1 
    69   71   72 1 
    70   71   68 1 
    71  174  173 1 
    72  124  123 1 
    73  205  204 1 
    74  298  297 1 
    75  123  125 1 
    76  123  120 1 
    77  178  176 1 
    78  176  173 1 
    79  176  177 1 
    80  206  204 1 
    81  122  120 1 
    82  302  300 1 
    83  207  204 1 
    84  207  209 1 
    85  207  208 1 
    86  173  175 1 
    87  173  170 1 
    88  303  300 1 
    89  295  294 1 
    90   69   68 1 
    91  204  201 1 
    92   68   70 1 
    93   68   65 1 
    94  297  300 1 
    95  297  294 1 
    96  297  299 1 
    97  300  301 1 
    98  120  121 1 
    99  120  117 1 
   100  168  167 1 
   101   66   65 1 
   102  296  294 1 
   103  199  198 1 
   104  294  291 1 
   105  172  170 1 
   106   67   65 1 
   107  118  117 1 
   108   65   63 1 
   109  116  114 1 
   110  170  167 1 
   111  170  171 1 
   112  258  257 1 
   113  290  288 1 
   114  167  169 1 
   115  167  164 1 
   116  201  198 1 
   117  201  203 1 
   118  201  202 1 
   119  117  114 1 
   120  117  119 1 
   121  259  257 1 
   122  198  200 1 
   123  198  195 1 
   124  162  161 1 
   125  114  115 1 
   126  114  111 1 
   127  112  111 1 
   128  163  161 1 
   129  257  260 1 
   130  257  254 1 
   131  291  293 1 
   132  291  288 1 
   133  291  292 1 
   134  286  285 1 
   135  288  285 1 
   136  288  289 1 
   137  252  251 1 
   138  161  164 1 
   139  161  158 1 
   140  284  282 1 
   141   63   62 1 
   142   63   64 2 
   143  253  251 1 
   144  197  195 1 
   145  164  166 1 
   146  164  165 1 
   147  111  113 1 
   148  111  108 1 
   149  193  192 1 
   150  195  192 1 
   151  195  196 1 
   152   62   60 1 
   153  285  282 1 
   154  285  287 1 
   155  251  254 1 
   156  251  248 1 
   157  156  155 1 
   158  157  155 1 
   159  254  256 1 
   160  254  255 1 
   161  282  283 1 
   162  282  279 1 
   163  247  245 1 
   164  192  194 1 
   165  192  189 1 
   166  280  279 1 
   167  148  147 2 
   168  155  158 1 
   169  155  152 1 
   170  158  160 1 
   171  158  159 1 
   172  106  105 1 
   173  110  108 1 
   174  278  276 1 
   175  108  105 1 
   176  108  109 1 
   177   29   27 1 
   178  279  276 1 
   179  279  281 1 
   180   60  105 1 
   181   60   27 1 
   182   60   61 1 
   183  191  189 1 
   184  249  248 1 
   185  145  144 1 
   186  248  245 1 
   187  248  250 1 
   188  269  268 1 
   189  105  107 1 
   190   28   27 1 
   191  245  246 1 
   192  245  242 1 
   193  150  149 1 
   194  189  144 1 
   195  189  190 1 
   196   27   25 1 
   197  147  149 1 
   198  147  146 1 
   199  243  242 1 
   200  276  277 1 
   201  276  273 1 
   202  268  266 1 
   203  274  273 1 
   204  241  239 1 
   205  140  139 2 
   206  144  146 1 
   207  144  141 1 
   208  149  152 1 
   209  149  151 1 
   210  152  153 1 
   211  152  154 1 
   212  242  239 1 
   213  242  244 1 
   214  267  266 1 
   215  240  239 1 
   216  273  275 1 
   217  273  270 1 
   218  239  236 1 
   219   21   18 2 
   220  266  270 1 
   221  266  263 1 
   222   25   23 1 
   223   25   26 2 
   224   23   22 1 
   225  139  141 1 
   226  139   32 am
   227  264  263 1 
   228   19   18 1 
   229  141  142 1 
   230  141  143 1 
   231  234  233 1 
   232  270  271 1 
   233  270  272 1 
   234   31   30 1 
   235  235  233 1 
   236   18   20 1 
   237   18   17 1 
   238  263  261 1 
   239  263  265 1 
   240   16   15 1 
   241  236  233 1 
   242  236  238 1 
   243  236  237 1 
   244  233  230 1 
   245  262  261 2 
   246   32   30 1 
   247   32   33 1 
   248   30   22 1 
   249   30    9 1 
   250   22   15 1 
   251   22   24 1 
   252  261   58 am
   253   42   41 1 
   254   15   17 1 
   255   15    6 1 
   256   57   56 1 
   257  229  227 1 
   258   45   47 2 
   259  228  227 1 
   260   58   56 1 
   261   58   59 1 
   262    5    4 1 
   263  230  227 1 
   264  230  231 1 
   265  230  232 1 
   266   11    9 1 
   267   11   12 1 
   268  227  223 1 
   269   56   41 1 
   270   56   48 1 
   271   40   41 1 
   272   40   38 1 
   273   41   43 1 
   274    9    7 1 
   275    9   10 1 
   276    7    6 1 
   277   35   34 1 
   278    6    4 1 
   279    6    8 1 
   280   54   53 1 
   281    4    1 1 
   282    4    2 1 
   283   46   47 1 
   284   13   12 1 
   285   47   43 1 
   286   47   44 1 
   287   12   38 1 
   288   12   14 1 
   289   52   51 2 
   290   51   50 1 
   291   51   53 1 
   292   38   34 1 
   293   38   39 1 
   294   34   48 1 
   295   34   36 1 
   296   48   50 1 
   297   48   49 1 
   298  223   53 1 
   299  223  224 1 
   300  223  225 1 
   301   53   55 1 
   302    3    2 1 
   303   37   36 1 
   304  226  225 1 
