@<TRIPOS>MOLECULE
C:\Users\Praveer\PycharmProjects\pdb_to_mol2_converter\data\pdb\laltol.pdb
   26    25     0     0     0
SMALL
GASTEIGER

@<TRIPOS>ATOM
      1 C1          0.0210   -0.0720   -0.0180 C.3       1 LAL1        0.0000
      2 H11        -0.4900    0.1920    0.9350 H         1 LAL1        0.0000
      3 H12        -0.3290    0.6340   -0.8040 H         1 LAL1        0.0000
      4 O1         -0.3580   -1.3890   -0.4230 O.3       1 LAL1        0.0000
      5 HO1         0.0440   -1.9850    0.2220 H         1 LAL1        0.0000
      6 C2          1.5290    0.0140    0.1230 C.3       1 LAL1        0.0000
      7 H2          1.9730   -0.5420   -0.7400 H         1 LAL1        0.0000
      8 O2          1.9390   -0.6540    1.3250 O.3       1 LAL1        0.0000
      9 HO2         1.8130    0.0030    2.0210 H         1 LAL1        0.0000
     10 C3          2.0500    1.4500    0.0590 C.3       1 LAL1        0.0000
     11 H3          1.7120    1.9150   -0.8970 H         1 LAL1        0.0000
     12 O3          1.4900    2.1840    1.1670 O.3       1 LAL1        0.0000
     13 HO3         0.8160    2.7750    0.8070 H         1 LAL1        0.0000
     14 C4          3.5790    1.5110    0.1140 C.3       1 LAL1        0.0000
     15 H4          3.9490    1.0140    1.0410 H         1 LAL1        0.0000
     16 O4          4.0740    0.7910   -1.0230 O.3       1 LAL1        0.0000
     17 HO4         4.4750   -0.0220   -0.6940 H         1 LAL1        0.0000
     18 C5          4.1440    2.9310    0.0560 C.3       1 LAL1        0.0000
     19 H5          3.6680    3.4760   -0.7940 H         1 LAL1        0.0000
     20 O5          3.8420    3.6080    1.2870 O.3       1 LAL1        0.0000
     21 HO5         3.0040    3.2200    1.5860 H         1 LAL1        0.0000
     22 C6          5.6540    2.9600   -0.1250 C.3       1 LAL1        0.0000
     23 H61         5.9600    2.4110   -1.0420 H         1 LAL1        0.0000
     24 H62         6.1630    2.4910    0.7470 H         1 LAL1        0.0000
     25 O6          6.0950    4.3130   -0.2660 O.3       1 LAL1        0.0000
     26 HO6         5.6410    4.7800    0.4480 H         1 LAL1        0.0000
@<TRIPOS>BOND
     1   23   22 1 
     2   16   17 1 
     3   16   14 1 
     4   11   10 1 
     5    3    1 1 
     6   19   18 1 
     7    7    6 1 
     8    4    1 1 
     9    4    5 1 
    10   25   22 1 
    11   25   26 1 
    12   22   18 1 
    13   22   24 1 
    14    1    6 1 
    15    1    2 1 
    16   18   14 1 
    17   18   20 1 
    18   10   14 1 
    19   10    6 1 
    20   10   12 1 
    21   14   15 1 
    22    6    8 1 
    23   13   12 1 
    24   20   21 1 
    25    8    9 1 
