@<TRIPOS>MOLECULE
C:\Users\Praveer\PycharmProjects\pdb_to_mol2_converter\data\pdb\laraol.pdb
   22    21     0     0     0
SMALL
GASTEIGER

@<TRIPOS>ATOM
      1 C1          0.0200   -0.0640    0.0230 C.3       1 LAR1        0.0000
      2 H11        -0.3180   -1.1120    0.1880 H         1 LAR1        0.0000
      3 H12        -0.3330    0.5470    0.8840 H         1 LAR1        0.0000
      4 O1         -0.5660    0.4360   -1.1830 O.3       1 LAR1        0.0000
      5 HO1        -0.7800   -0.3220   -1.7370 H         1 LAR1        0.0000
      6 C2          1.5260   -0.0040   -0.0860 C.3       1 LAR1        0.0000
      7 H2          1.8510   -0.5430   -1.0050 H         1 LAR1        0.0000
      8 O2          2.0570   -0.6890    1.0560 O.3       1 LAR1        0.0000
      9 HO2         2.1730    0.0290    1.6940 H         1 LAR1        0.0000
     10 C3          2.0420    1.4340   -0.1050 C.3       1 LAR1        0.0000
     11 H3          1.4600    2.0050   -0.8690 H         1 LAR1        0.0000
     12 O3          1.8350    2.0670    1.1750 O.3       1 LAR1        0.0000
     13 HO3         1.2930    2.8420    0.9910 H         1 LAR1        0.0000
     14 C4          3.5120    1.5100   -0.4940 C.3       1 LAR1        0.0000
     15 H4          4.0860    0.7870    0.1330 H         1 LAR1        0.0000
     16 O4          3.6670    1.1330   -1.8650 O.3       1 LAR1        0.0000
     17 HO4         3.5620    1.9750   -2.3330 H         1 LAR1        0.0000
     18 C5          4.1230    2.8900   -0.3130 C.3       1 LAR1        0.0000
     19 H51         5.1990    2.8610   -0.6020 H         1 LAR1        0.0000
     20 H52         4.0700    3.1960    0.7550 H         1 LAR1        0.0000
     21 O5          3.4400    3.8560   -1.1290 O.3       1 LAR1        0.0000
     22 HO5         3.7990    4.7240   -0.9190 H         1 LAR1        0.0000
@<TRIPOS>BOND
     1   17   16 1 
     2   16   14 1 
     3    5    4 1 
     4    4    1 1 
     5   21   22 1 
     6   21   18 1 
     7    7    6 1 
     8   11   10 1 
     9   19   18 1 
    10   14   18 1 
    11   14   10 1 
    12   14   15 1 
    13   18   20 1 
    14   10    6 1 
    15   10   12 1 
    16    6    1 1 
    17    6    8 1 
    18    1    2 1 
    19    1    3 1 
    20   13   12 1 
    21    8    9 1 
