@<TRIPOS>MOLECULE
C:\Users\Praveer\PycharmProjects\pdb_to_mol2_converter\data\pdb\lau.pdb
   37    36     0     0     0
SMALL
GASTEIGER

@<TRIPOS>ATOM
      1 O1          0.0520   -0.1300    0.2760 O.co2     1 LAU1        0.0000
      2 O2          2.0830   -0.9190   -0.1720 O.co2     1 LAU1        0.0000
      3 C1          1.2810    0.0240    0.0540 C.2       1 LAU1        0.0000
      4 C2          1.7940    1.4640    0.0080 C.3       1 LAU1        0.0000
      5 H2R         1.5660    1.9260    0.9890 H         1 LAU1        0.0000
      6 H2S         1.2160    1.9910   -0.7770 H         1 LAU1        0.0000
      7 C3          3.3070    1.5650   -0.2910 C.3       1 LAU1        0.0000
      8 H3R         3.5140    1.0620   -1.2620 H         1 LAU1        0.0000
      9 H3S         3.8690    1.0120    0.4950 H         1 LAU1        0.0000
     10 C4          3.7950    3.0170   -0.3530 C.3       1 LAU1        0.0000
     11 H4R         3.6100    3.5030    0.6300 H         1 LAU1        0.0000
     12 H4S         3.1950    3.5580   -1.1190 H         1 LAU1        0.0000
     13 C5          5.2840    3.1290   -0.7090 C.3       1 LAU1        0.0000
     14 H5R         5.4570    2.6040   -1.6760 H         1 LAU1        0.0000
     15 H5S         5.8860    2.6070    0.0680 H         1 LAU1        0.0000
     16 C6          5.7560    4.5840   -0.8350 C.3       1 LAU1        0.0000
     17 H6R         5.6170    5.0990    0.1410 H         1 LAU1        0.0000
     18 H6S         5.1170    5.1020   -1.5860 H         1 LAU1        0.0000
     19 C7          7.2240    4.6950   -1.2680 C.3       1 LAU1        0.0000
     20 H7R         7.3570    4.1460   -2.2280 H         1 LAU1        0.0000
     21 H7S         7.8690    4.2050   -0.5060 H         1 LAU1        0.0000
     22 C8          7.6750    6.1490   -1.4600 C.3       1 LAU1        0.0000
     23 H8R         7.5640    6.6970   -0.4980 H         1 LAU1        0.0000
     24 H8S         7.0090    6.6380   -2.2070 H         1 LAU1        0.0000
     25 C9          9.1280    6.2620   -1.9420 C.3       1 LAU1        0.0000
     26 H9R         9.2390    5.6970   -2.8940 H         1 LAU1        0.0000
     27 H9S         9.8000    5.7920   -1.1890 H         1 LAU1        0.0000
     28 C10         9.5630    7.7160   -2.1700 C.3       1 LAU1        0.0000
     29 H10R        9.4580    8.2820   -1.2180 H         1 LAU1        0.0000
     30 H10S        8.8850    8.1850   -2.9180 H         1 LAU1        0.0000
     31 C11        11.0100    7.8310   -2.6660 C.3       1 LAU1        0.0000
     32 H11R       11.1110    7.2530   -3.6130 H         1 LAU1        0.0000
     33 H11S       11.6850    7.3600   -1.9150 H         1 LAU1        0.0000
     34 C12        11.4550    9.2750   -2.9090 C.3       1 LAU1        0.0000
     35 H12S       11.3860    9.8660   -1.9700 H         1 LAU1        0.0000
     36 H12R       10.8100    9.7570   -3.6740 H         1 LAU1        0.0000
     37 H12T       12.5070    9.3050   -3.2660 H         1 LAU1        0.0000
@<TRIPOS>BOND
     1   36   34 1 
     2   32   31 1 
     3   37   34 1 
     4   30   28 1 
     5   34   31 1 
     6   34   35 1 
     7   26   25 1 
     8   31   28 1 
     9   31   33 1 
    10   20   19 1 
    11   24   22 1 
    12   28   25 1 
    13   28   29 1 
    14   25   22 1 
    15   25   27 1 
    16   14   13 1 
    17   18   16 1 
    18   22   19 1 
    19   22   23 1 
    20   19   16 1 
    21   19   21 1 
    22    8    7 1 
    23   12   10 1 
    24   16   13 1 
    25   16   17 1 
    26    6    4 1 
    27   13   10 1 
    28   13   15 1 
    29   10    7 1 
    30   10   11 1 
    31    7    4 1 
    32    7    9 1 
    33    2    3 ar
    34    4    3 1 
    35    4    5 1 
    36    3    1 ar
