@<TRIPOS>MOLECULE
C:\Users\Praveer\PycharmProjects\pdb_to_mol2_converter\data\pdb\laup.pdb
   38    37     0     0     0
SMALL
GASTEIGER

@<TRIPOS>ATOM
      1 H1          0.0080   -0.0430   -0.2420 H         1 LAU1        0.0000
      2 O1          0.9640   -0.0290   -0.2570 O.3       1 LAU1        0.0000
      3 O2          0.5260    2.1330    0.1630 O.2       1 LAU1        0.0000
      4 C1          1.3590    1.2730   -0.0570 C.2       1 LAU1        0.0000
      5 C2          2.8690    1.3960    0.1120 C.3       1 LAU1        0.0000
      6 H2R         3.3560    1.0380   -0.8180 H         1 LAU1        0.0000
      7 H2S         3.1800    0.7390    0.9510 H         1 LAU1        0.0000
      8 C3          3.2990    2.8490    0.4060 C.3       1 LAU1        0.0000
      9 H3R         2.7890    3.2110    1.3280 H         1 LAU1        0.0000
     10 H3S         2.9890    3.5140   -0.4320 H         1 LAU1        0.0000
     11 C4          4.8160    2.9730    0.6040 C.3       1 LAU1        0.0000
     12 H4R         5.3380    2.6490   -0.3240 H         1 LAU1        0.0000
     13 H4S         5.1300    2.2890    1.4250 H         1 LAU1        0.0000
     14 C5          5.2500    4.4020    0.9560 C.3       1 LAU1        0.0000
     15 H5R         4.7100    4.7270    1.8740 H         1 LAU1        0.0000
     16 H5S         4.9590    5.0900    0.1310 H         1 LAU1        0.0000
     17 C6          6.7610    4.5160    1.2020 C.3       1 LAU1        0.0000
     18 H6R         7.3070    4.2330    0.2750 H         1 LAU1        0.0000
     19 H6S         7.0520    3.7960    2.0000 H         1 LAU1        0.0000
     20 C7          7.1820    5.9280    1.6300 C.3       1 LAU1        0.0000
     21 H7R         6.6130    6.2120    2.5440 H         1 LAU1        0.0000
     22 H7S         6.9140    6.6500    0.8270 H         1 LAU1        0.0000
     23 C8          8.6830    6.0320    1.9270 C.3       1 LAU1        0.0000
     24 H8R         9.2580    5.7760    1.0090 H         1 LAU1        0.0000
     25 H8S         8.9500    5.2890    2.7120 H         1 LAU1        0.0000
     26 C9          9.0920    7.4320    2.4060 C.3       1 LAU1        0.0000
     27 H9R         8.4970    7.6930    3.3100 H         1 LAU1        0.0000
     28 H9S         8.8490    8.1750    1.6150 H         1 LAU1        0.0000
     29 C10        10.5850    7.5250    2.7480 C.3       1 LAU1        0.0000
     30 H10R       11.1830    7.2700    1.8450 H         1 LAU1        0.0000
     31 H10S       10.8250    6.7750    3.5350 H         1 LAU1        0.0000
     32 C11        10.9920    8.9180    3.2450 C.3       1 LAU1        0.0000
     33 H11R       10.3780    9.1730    4.1380 H         1 LAU1        0.0000
     34 H11S       10.7560    9.6640    2.4520 H         1 LAU1        0.0000
     35 C12        12.4760    9.0200    3.6080 C.3       1 LAU1        0.0000
     36 H12S       13.1090    8.7880    2.7250 H         1 LAU1        0.0000
     37 H12R       12.7270    8.3010    4.4180 H         1 LAU1        0.0000
     38 H12T       12.7230   10.0450    3.9600 H         1 LAU1        0.0000
@<TRIPOS>BOND
     1    6    5 1 
     2   10    8 1 
     3   12   11 1 
     4    2    1 1 
     5    2    4 1 
     6    4    5 1 
     7    4    3 2 
     8    5    8 1 
     9    5    7 1 
    10   16   14 1 
    11   18   17 1 
    12    8   11 1 
    13    8    9 1 
    14   11   14 1 
    15   11   13 1 
    16   22   20 1 
    17   14   17 1 
    18   14   15 1 
    19   24   23 1 
    20   17   20 1 
    21   17   19 1 
    22   28   26 1 
    23   20   23 1 
    24   20   21 1 
    25   30   29 1 
    26   23   26 1 
    27   23   25 1 
    28   26   29 1 
    29   26   27 1 
    30   34   32 1 
    31   36   35 1 
    32   29   32 1 
    33   29   31 1 
    34   32   35 1 
    35   32   33 1 
    36   35   38 1 
    37   35   37 1 
