@<TRIPOS>MOLECULE
C:\Users\Praveer\PycharmProjects\pdb_to_mol2_converter\data\pdb\lca.pdb
   66    69     0     0     0
SMALL
GASTEIGER

@<TRIPOS>ATOM
      1 C3          2.1180    1.4070   -0.0030 C.3       1 LCA1        0.0000
      2 O3          3.5050    1.2870   -0.2680 O.3       1 LCA1        0.0000
      3 H3'         3.5600    0.8730   -1.1320 H         1 LCA1        0.0000
      4 H3          1.9610    1.8730    0.9980 H         1 LCA1        0.0000
      5 C4          1.4690    2.2950   -1.0820 C.3       1 LCA1        0.0000
      6 H4A         1.9000    2.0270   -2.0690 H         1 LCA1        0.0000
      7 H4B         1.7450    3.3530   -0.8830 H         1 LCA1        0.0000
      8 C5         -0.0820    2.1890   -1.1730 C.3       1 LCA1        0.0000
      9 H5         -0.4700    2.6570   -0.2360 H         1 LCA1        0.0000
     10 C6         -0.6090    3.0380   -2.3540 C.3       1 LCA1        0.0000
     11 H6A        -0.1230    4.0370   -2.3410 H         1 LCA1        0.0000
     12 H6B        -1.7020    3.2020   -2.2330 H         1 LCA1        0.0000
     13 C7         -0.3550    2.3560   -3.7030 C.3       1 LCA1        0.0000
     14 H7A         0.7360    2.3460   -3.9130 H         1 LCA1        0.0000
     15 H7B        -0.8460    2.9470   -4.5060 H         1 LCA1        0.0000
     16 C8         -0.8870    0.9030   -3.7150 C.3       1 LCA1        0.0000
     17 H8         -1.9910    0.9060   -3.6950 H         1 LCA1        0.0000
     18 C14        -0.3470    0.2580   -5.0130 C.3       1 LCA1        0.0000
     19 H14         0.7660    0.2400   -4.9590 H         1 LCA1        0.0000
     20 C15        -0.7490    0.9290   -6.3250 C.3       1 LCA1        0.0000
     21 H15A       -0.0830    1.7690   -6.5660 H         1 LCA1        0.0000
     22 H15B       -1.7720    1.3310   -6.2690 H         1 LCA1        0.0000
     23 C16        -0.6540   -0.2130   -7.3580 C.3       1 LCA1        0.0000
     24 H16A        0.0340    0.0460   -8.1760 H         1 LCA1        0.0000
     25 H16B       -1.6290   -0.3910   -7.8340 H         1 LCA1        0.0000
     26 C17        -0.1610   -1.4750   -6.5970 C.3       1 LCA1        0.0000
     27 H17         0.9300   -1.4370   -6.4560 H         1 LCA1        0.0000
     28 C13        -0.8440   -1.1900   -5.2100 C.3       1 LCA1        0.0000
     29 C18        -2.3890   -1.3180   -5.2970 C.3       1 LCA1        0.0000
     30 H18A       -2.8930   -0.3500   -5.1150 H         1 LCA1        0.0000
     31 H18B       -2.7630   -2.0480   -4.5510 H         1 LCA1        0.0000
     32 H18C       -2.7110   -1.6760   -6.2930 H         1 LCA1        0.0000
     33 C12        -0.3280   -2.0300   -4.0320 C.3       1 LCA1        0.0000
     34 H12A        0.7820   -2.0840   -4.0870 H         1 LCA1        0.0000
     35 H12B       -0.7280   -3.0610   -4.0590 H         1 LCA1        0.0000
     36 C11        -0.7340   -1.3950   -2.6850 C.3       1 LCA1        0.0000
     37 H11A       -0.2700   -1.9980   -1.8770 H         1 LCA1        0.0000
     38 H11B       -1.8350   -1.4650   -2.5690 H         1 LCA1        0.0000
     39 C9         -0.2960    0.0880   -2.5570 C.3       1 LCA1        0.0000
     40 H9          0.8100    0.1020   -2.6810 H         1 LCA1        0.0000
     41 C10        -0.6240    0.7560   -1.2020 C.3       1 LCA1        0.0000
     42 C19        -2.1510    0.7690   -0.9320 C.3       1 LCA1        0.0000
     43 H19A       -2.7080    1.2970   -1.7280 H         1 LCA1        0.0000
     44 H19B       -2.3630    1.2820    0.0300 H         1 LCA1        0.0000
     45 H19C       -2.5420   -0.2660   -0.8580 H         1 LCA1        0.0000
     46 C1         -0.0010   -0.0060    0.0010 C.3       1 LCA1        0.0000
     47 H1A        -0.3890   -1.0440    0.0400 H         1 LCA1        0.0000
     48 H1B        -0.3410    0.4990    0.9340 H         1 LCA1        0.0000
     49 C2          1.5330   -0.0140    0.0030 C.3       1 LCA1        0.0000
     50 H2A         1.8930   -0.5430    0.9140 H         1 LCA1        0.0000
     51 H2B         1.8980   -0.5870   -0.8760 H         1 LCA1        0.0000
     52 C20        -0.5010   -2.7860   -7.3790 C.3       1 LCA1        0.0000
     53 H20        -1.5540   -2.7390   -7.7330 H         1 LCA1        0.0000
     54 C21        -0.3290   -4.0510   -6.5160 C.3       1 LCA1        0.0000
     55 H21A       -1.1350   -4.1170   -5.7600 H         1 LCA1        0.0000
     56 H21B        0.6610   -4.0460   -6.0150 H         1 LCA1        0.0000
     57 H21C       -0.3970   -4.9640   -7.1430 H         1 LCA1        0.0000
     58 C22         0.4040   -2.8680   -8.6360 C.3       1 LCA1        0.0000
     59 H22A        1.4520   -3.0740   -8.3280 H         1 LCA1        0.0000
     60 H22B        0.4040   -1.8890   -9.1630 H         1 LCA1        0.0000
     61 C23        -0.0390   -3.9300   -9.6750 C.3       1 LCA1        0.0000
     62 H23A       -1.0850   -3.7320   -9.9880 H         1 LCA1        0.0000
     63 H23B        0.0170   -4.9510   -9.2510 H         1 LCA1        0.0000
     64 CD          0.8130   -3.9340  -10.9450 C.2       1 LCA1        0.0000
     65 OE1         0.4440   -4.7600  -11.8190 O.co2     1 LCA1        0.0000
     66 OE2         1.7790   -3.1320  -10.9940 O.co2     1 LCA1        0.0000
@<TRIPOS>BOND
     1   65   64 ar
     2   66   64 ar
     3   64   61 1 
     4   62   61 1 
     5   61   63 1 
     6   61   58 1 
     7   60   58 1 
     8   58   59 1 
     9   58   52 1 
    10   24   23 1 
    11   25   23 1 
    12   53   52 1 
    13   52   26 1 
    14   52   54 1 
    15   23   26 1 
    16   23   20 1 
    17   57   54 1 
    18   26   27 1 
    19   26   28 1 
    20   21   20 1 
    21   54   56 1 
    22   54   55 1 
    23   20   22 1 
    24   20   18 1 
    25   32   29 1 
    26   29   28 1 
    27   29   30 1 
    28   29   31 1 
    29   28   18 1 
    30   28   33 1 
    31   18   19 1 
    32   18   16 1 
    33   15   13 1 
    34   34   33 1 
    35   35   33 1 
    36   33   36 1 
    37   14   13 1 
    38   16   13 1 
    39   16   17 1 
    40   16   39 1 
    41   13   10 1 
    42   36   38 1 
    43   36   39 1 
    44   36   37 1 
    45   40   39 1 
    46   39   41 1 
    47   10   11 1 
    48   10   12 1 
    49   10    8 1 
    50    6    5 1 
    51   43   42 1 
    52   41    8 1 
    53   41   42 1 
    54   41   46 1 
    55    8    5 1 
    56    8    9 1 
    57    3    2 1 
    58    5    7 1 
    59    5    1 1 
    60   42   45 1 
    61   42   44 1 
    62   51   49 1 
    63    2    1 1 
    64    1   49 1 
    65    1    4 1 
    66   46   49 1 
    67   46   47 1 
    68   46   48 1 
    69   49   50 1 
