@<TRIPOS>MOLECULE
C:\Users\Praveer\PycharmProjects\pdb_to_mol2_converter\data\pdb\ldao.pdb
   47    46     0     0     0
SMALL
GASTEIGER

@<TRIPOS>ATOM
      1 N           1.5300    0.0530   -0.0420 N.4       1 LDA1        0.0000
      2 C13         2.1500    1.4100   -0.0550 C.3       1 LDA1        0.0000
      3 H13A        1.8330    1.9990   -0.8970 H         1 LDA1        0.0000
      4 H13B        3.2270    1.2920   -0.0710 H         1 LDA1        0.0000
      5 H13C        1.9130    1.9140    0.8740 H         1 LDA1        0.0000
      6 C14         1.9510   -0.6960   -1.2610 C.3       1 LDA1        0.0000
      7 H14A        3.0280   -0.7960   -1.2540 H         1 LDA1        0.0000
      8 H14B        1.6210   -0.2200   -2.1680 H         1 LDA1        0.0000
      9 H14C        1.5430   -1.6980   -1.1980 H         1 LDA1        0.0000
     10 O1          2.0280   -0.6050    1.0500 O.3       1 LDA1        0.0000
     11 C1          0.0300    0.1520    0.0580 C.3       1 LDA1        0.0000
     12 H11        -0.3540    0.7870   -0.7270 H         1 LDA1        0.0000
     13 H12        -0.1900    0.6220    1.0120 H         1 LDA1        0.0000
     14 C2         -0.7150   -1.1960    0.0300 C.3       1 LDA1        0.0000
     15 H21        -0.3090   -1.8330    0.8490 H         1 LDA1        0.0000
     16 H22        -0.5260   -1.7210   -0.9300 H         1 LDA1        0.0000
     17 C3         -2.2280   -1.0240    0.2130 C.3       1 LDA1        0.0000
     18 H31        -2.6270   -0.4160   -0.6290 H         1 LDA1        0.0000
     19 H32        -2.4240   -0.4720    1.1600 H         1 LDA1        0.0000
     20 C4         -2.9770   -2.3620    0.2590 C.3       1 LDA1        0.0000
     21 H41        -2.6470   -2.9350    1.1550 H         1 LDA1        0.0000
     22 H42        -2.7110   -2.9600   -0.6420 H         1 LDA1        0.0000
     23 C5         -4.5000   -2.1800    0.3010 C.3       1 LDA1        0.0000
     24 H51        -4.8200   -1.6170   -0.6050 H         1 LDA1        0.0000
     25 H52        -4.7740   -1.5710    1.1920 H         1 LDA1        0.0000
     26 C6         -5.2550   -3.5140    0.3510 C.3       1 LDA1        0.0000
     27 H61        -4.9930   -4.0450    1.2940 H         1 LDA1        0.0000
     28 H62        -4.9270   -4.1530   -0.4990 H         1 LDA1        0.0000
     29 C7         -6.7760   -3.3250    0.2770 C.3       1 LDA1        0.0000
     30 H71        -7.0320   -2.8410   -0.6930 H         1 LDA1        0.0000
     31 H72        -7.0970   -2.6380    1.0920 H         1 LDA1        0.0000
     32 C8         -7.5500   -4.6440    0.4040 C.3       1 LDA1        0.0000
     33 H81        -7.3350   -5.0920    1.4000 H         1 LDA1        0.0000
     34 H82        -7.1920   -5.3580   -0.3730 H         1 LDA1        0.0000
     35 C9         -9.0640   -4.4510    0.2500 C.3       1 LDA1        0.0000
     36 H91        -9.2800   -4.0780   -0.7770 H         1 LDA1        0.0000
     37 H92        -9.4030   -3.6710    0.9690 H         1 LDA1        0.0000
     38 C10        -9.8670   -5.7350    0.5030 C.3       1 LDA1        0.0000
     39 H101       -9.6710   -6.0830    1.5420 H         1 LDA1        0.0000
     40 H102       -9.5180   -6.5310   -0.1920 H         1 LDA1        0.0000
     41 C11       -11.3770   -5.5330    0.3200 C.3       1 LDA1        0.0000
     42 H111      -11.5730   -5.2390   -0.7370 H         1 LDA1        0.0000
     43 H112      -11.7040   -4.6870    0.9670 H         1 LDA1        0.0000
     44 C12       -12.2100   -6.7720    0.6610 C.3       1 LDA1        0.0000
     45 H121      -12.0570   -7.0610    1.7230 H         1 LDA1        0.0000
     46 H122      -11.9170   -7.6290    0.0180 H         1 LDA1        0.0000
     47 H123      -13.2920   -6.5700    0.5060 H         1 LDA1        0.0000
@<TRIPOS>BOND
     1    8    6 1 
     2    6    7 1 
     3    6    9 1 
     4    6    1 1 
     5   16   14 1 
     6    3    2 1 
     7   36   35 1 
     8   42   41 1 
     9   12   11 1 
    10   30   29 1 
    11   22   20 1 
    12   18   17 1 
    13   24   23 1 
    14   28   26 1 
    15   34   32 1 
    16   40   38 1 
    17    4    2 1 
    18    2    1 1 
    19    2    5 1 
    20    1   11 1 
    21    1   10 1 
    22   46   44 1 
    23   14   11 1 
    24   14   17 1 
    25   14   15 1 
    26   11   13 1 
    27   17   20 1 
    28   17   19 1 
    29   35   32 1 
    30   35   38 1 
    31   35   37 1 
    32   20   23 1 
    33   20   21 1 
    34   29   26 1 
    35   29   32 1 
    36   29   31 1 
    37   23   26 1 
    38   23   25 1 
    39   41   38 1 
    40   41   44 1 
    41   41   43 1 
    42   26   27 1 
    43   32   33 1 
    44   38   39 1 
    45   47   44 1 
    46   44   45 1 
