@<TRIPOS>MOLECULE
C:\Users\Praveer\PycharmProjects\pdb_to_mol2_converter\data\pdb\lgluol.pdb
   26    25     0     0     0
SMALL
GASTEIGER

@<TRIPOS>ATOM
      1 C1          0.0050    0.0210   -0.1100 C.3       1 LGL1        0.0000
      2 H11        -0.3880    0.7490    0.6360 H         1 LGL1        0.0000
      3 H12        -0.3600    0.3270   -1.1170 H         1 LGL1        0.0000
      4 O1         -0.4870   -1.2860    0.2160 O.3       1 LGL1        0.0000
      5 HO1        -1.4500   -1.2350    0.2530 H         1 LGL1        0.0000
      6 C2          1.5200    0.0260   -0.0660 C.3       1 LGL1        0.0000
      7 H2          1.8550   -0.4020    0.9100 H         1 LGL1        0.0000
      8 O2          2.0080   -0.8190   -1.1200 O.3       1 LGL1        0.0000
      9 HO2         1.3250   -1.5050   -1.1710 H         1 LGL1        0.0000
     10 C3          2.0610    1.4500   -0.1670 C.3       1 LGL1        0.0000
     11 H3          1.6510    2.0160    0.7030 H         1 LGL1        0.0000
     12 O3          1.5740    2.0900   -1.3580 O.3       1 LGL1        0.0000
     13 HO3         2.2210    1.8460   -2.0310 H         1 LGL1        0.0000
     14 C4          3.5900    1.4960   -0.0970 C.3       1 LGL1        0.0000
     15 H4          3.9280    0.8950    0.7810 H         1 LGL1        0.0000
     16 O4          4.1460    0.9150   -1.2870 O.3       1 LGL1        0.0000
     17 HO4         3.5950    0.1240   -1.4390 H         1 LGL1        0.0000
     18 C5          4.1080    2.9140    0.0490 C.3       1 LGL1        0.0000
     19 H5          3.6860    3.5540   -0.7610 H         1 LGL1        0.0000
     20 O5          3.6940    3.4250    1.3200 O.3       1 LGL1        0.0000
     21 HO5         4.3480    4.1190    1.4910 H         1 LGL1        0.0000
     22 C6          5.6250    2.9800   -0.0000 C.3       1 LGL1        0.0000
     23 H61         6.0170    2.5370   -0.9430 H         1 LGL1        0.0000
     24 H62         6.0560    2.3990    0.8480 H         1 LGL1        0.0000
     25 O6          6.0650    4.3430    0.0920 O.3       1 LGL1        0.0000
     26 HO6         6.3200    4.6250   -0.7950 H         1 LGL1        0.0000
@<TRIPOS>BOND
     1   13   12 1 
     2   17   16 1 
     3   12   10 1 
     4   16   14 1 
     5    9    8 1 
     6    8    6 1 
     7    3    1 1 
     8   23   22 1 
     9   26   25 1 
    10   19   18 1 
    11   10   14 1 
    12   10    6 1 
    13   10   11 1 
    14    1    6 1 
    15    1    4 1 
    16    1    2 1 
    17   14   18 1 
    18   14   15 1 
    19    6    7 1 
    20   22   18 1 
    21   22   25 1 
    22   22   24 1 
    23   18   20 1 
    24    4    5 1 
    25   20   21 1 
