@<TRIPOS>MOLECULE
C:\Users\Praveer\PycharmProjects\pdb_to_mol2_converter\data\pdb\lgulol.pdb
   26    25     0     0     0
SMALL
GASTEIGER

@<TRIPOS>ATOM
      1 C1          0.0050   -0.0630   -0.2070 C.3       1 LGU1        0.0000
      2 H11        -0.4400    0.3270    0.7350 H         1 LGU1        0.0000
      3 H12        -0.3710    0.5580   -1.0510 H         1 LGU1        0.0000
      4 O1         -0.4220   -1.4230   -0.3790 O.3       1 LGU1        0.0000
      5 HO1        -1.3150   -1.4960   -0.0220 H         1 LGU1        0.0000
      6 C2          1.5220    0.0030   -0.1310 C.3       1 LGU1        0.0000
      7 H2          1.8800   -0.6720    0.6830 H         1 LGU1        0.0000
      8 O2          2.0370   -0.4610   -1.3840 O.3       1 LGU1        0.0000
      9 HO2         1.4640   -1.2150   -1.5810 H         1 LGU1        0.0000
     10 C3          2.0360    1.4130    0.1150 C.3       1 LGU1        0.0000
     11 H3          1.7690    2.0310   -0.7750 H         1 LGU1        0.0000
     12 O3          1.3760    1.9800    1.2590 O.3       1 LGU1        0.0000
     13 HO3         1.8440    1.5780    2.0040 H         1 LGU1        0.0000
     14 C4          3.5520    1.4530    0.3200 C.3       1 LGU1        0.0000
     15 H4          4.0230    0.8330   -0.4780 H         1 LGU1        0.0000
     16 O4          3.9240    0.8980    1.5960 O.3       1 LGU1        0.0000
     17 HO4         4.2780    1.6530    2.0870 H         1 LGU1        0.0000
     18 C5          4.0970    2.8740    0.1910 C.3       1 LGU1        0.0000
     19 H5          3.6080    3.3360   -0.7030 H         1 LGU1        0.0000
     20 O5          3.7950    3.6830    1.3410 O.3       1 LGU1        0.0000
     21 HO5         2.8300    3.7680    1.3560 H         1 LGU1        0.0000
     22 C6          5.5930    2.8840   -0.0520 C.3       1 LGU1        0.0000
     23 H61         5.8660    2.0940   -0.7860 H         1 LGU1        0.0000
     24 H62         6.1570    2.6860    0.8880 H         1 LGU1        0.0000
     25 O6          5.9850    4.1430   -0.6070 O.3       1 LGU1        0.0000
     26 HO6         5.7550    4.8030    0.0570 H         1 LGU1        0.0000
@<TRIPOS>BOND
     1    9    8 1 
     2    8    6 1 
     3    3    1 1 
     4   23   22 1 
     5   11   10 1 
     6   19   18 1 
     7   25   22 1 
     8   25   26 1 
     9   15   14 1 
    10    4    1 1 
    11    4    5 1 
    12    1    6 1 
    13    1    2 1 
    14    6   10 1 
    15    6    7 1 
    16   22   18 1 
    17   22   24 1 
    18   10   14 1 
    19   10   12 1 
    20   18   14 1 
    21   18   20 1 
    22   14   16 1 
    23   12   13 1 
    24   20   21 1 
    25   16   17 1 
