@<TRIPOS>MOLECULE
C:\Users\Praveer\PycharmProjects\pdb_to_mol2_converter\data\pdb\lidiol.pdb
   26    25     0     0     0
SMALL
GASTEIGER

@<TRIPOS>ATOM
      1 C1          0.0510   -0.0340   -0.1760 C.3       1 LID1        0.0000
      2 H11        -0.5560    0.2120    0.7250 H         1 LID1        0.0000
      3 H12        -0.2000    0.7050   -0.9690 H         1 LID1        0.0000
      4 O1         -0.2990   -1.3320   -0.6610 O.3       1 LID1        0.0000
      5 HO1        -0.0820   -1.9400    0.0580 H         1 LID1        0.0000
      6 C2          1.5330    0.0120    0.1320 C.3       1 LID1        0.0000
      7 H2          2.0800   -0.5090   -0.6940 H         1 LID1        0.0000
      8 O2          1.7830   -0.6970    1.3560 O.3       1 LID1        0.0000
      9 HO2         2.7220   -0.5280    1.5480 H         1 LID1        0.0000
     10 C3          2.0580    1.4440    0.1850 C.3       1 LID1        0.0000
     11 H3          1.7060    1.9790   -0.7290 H         1 LID1        0.0000
     12 O3          1.5080    2.1190    1.3280 O.3       1 LID1        0.0000
     13 HO3         1.2790    1.3960    1.9320 H         1 LID1        0.0000
     14 C4          3.5910    1.5000    0.1870 C.3       1 LID1        0.0000
     15 H4          3.9460    0.9670   -0.7260 H         1 LID1        0.0000
     16 O4          4.1380    0.8240    1.3320 O.3       1 LID1        0.0000
     17 HO4         4.3680    1.5450    1.9380 H         1 LID1        0.0000
     18 C5          4.1190    2.9310    0.1370 C.3       1 LID1        0.0000
     19 H5          3.5780    3.4530   -0.6910 H         1 LID1        0.0000
     20 O5          3.8660    3.6390    1.3600 O.3       1 LID1        0.0000
     21 HO5         2.9260    3.4720    1.5480 H         1 LID1        0.0000
     22 C6          5.6030    2.9710   -0.1670 C.3       1 LID1        0.0000
     23 H61         5.8520    2.2280   -0.9570 H         1 LID1        0.0000
     24 H62         6.2080    2.7240    0.7350 H         1 LID1        0.0000
     25 O6          5.9590    4.2660   -0.6550 O.3       1 LID1        0.0000
     26 HO6         5.7510    4.8760    0.0650 H         1 LID1        0.0000
@<TRIPOS>BOND
     1    3    1 1 
     2   23   22 1 
     3   11   10 1 
     4   15   14 1 
     5    7    6 1 
     6   19   18 1 
     7    4    1 1 
     8    4    5 1 
     9   25   22 1 
    10   25   26 1 
    11    1    6 1 
    12    1    2 1 
    13   22   18 1 
    14   22   24 1 
    15    6   10 1 
    16    6    8 1 
    17   18   14 1 
    18   18   20 1 
    19   10   14 1 
    20   10   12 1 
    21   14   16 1 
    22   12   13 1 
    23   16   17 1 
    24    8    9 1 
    25   20   21 1 
