@<TRIPOS>MOLECULE
C:\Users\Praveer\PycharmProjects\pdb_to_mol2_converter\data\pdb\lign.pdb
   73    72     0     0     0
SMALL
GASTEIGER

@<TRIPOS>ATOM
      1 O1          0.0030   -0.0560    0.0990 O.co2     1 LIG1        0.0000
      2 O2          2.0570   -0.9070    0.0430 O.co2     1 LIG1        0.0000
      3 C1          1.2550    0.0620    0.0460 C.2       1 LIG1        0.0000
      4 C2          1.8080    1.4860   -0.0190 C.3       1 LIG1        0.0000
      5 H2R         1.4410    2.0230    0.8790 H         1 LIG1        0.0000
      6 H2S         1.3760    1.9640   -0.9210 H         1 LIG1        0.0000
      7 C3          3.3510    1.5410   -0.0770 C.3       1 LIG1        0.0000
      8 H3R         3.6970    0.9600   -0.9630 H         1 LIG1        0.0000
      9 H3S         3.7650    1.0420    0.8280 H         1 LIG1        0.0000
     10 C4          3.8870    2.9750   -0.1670 C.3       1 LIG1        0.0000
     11 H4R         3.5380    3.5470    0.7220 H         1 LIG1        0.0000
     12 H4S         3.4570    3.4580   -1.0730 H         1 LIG1        0.0000
     13 C5          5.4180    3.0280   -0.2410 C.3       1 LIG1        0.0000
     14 H5R         5.7540    2.4160   -1.1090 H         1 LIG1        0.0000
     15 H5S         5.8410    2.5660    0.6790 H         1 LIG1        0.0000
     16 C6          5.9590    4.4560   -0.3920 C.3       1 LIG1        0.0000
     17 H6R         5.6310    5.0660    0.4790 H         1 LIG1        0.0000
     18 H6S         5.5190    4.9100   -1.3090 H         1 LIG1        0.0000
     19 C7          7.4890    4.4960   -0.4960 C.3       1 LIG1        0.0000
     20 H7R         7.8080    3.8490   -1.3450 H         1 LIG1        0.0000
     21 H7S         7.9280    4.0710    0.4340 H         1 LIG1        0.0000
     22 C8          8.0380    5.9120   -0.7160 C.3       1 LIG1        0.0000
     23 H8R         7.7330    6.5610    0.1350 H         1 LIG1        0.0000
     24 H8S         7.5870    6.3340   -1.6420 H         1 LIG1        0.0000
     25 C9          9.5660    5.9310   -0.8480 C.3       1 LIG1        0.0000
     26 H9R         9.8640    5.2540   -1.6800 H         1 LIG1        0.0000
     27 H9S        10.0180    5.5340    0.0890 H         1 LIG1        0.0000
     28 C10        10.1260    7.3330   -1.1240 C.3       1 LIG1        0.0000
     29 H10R        9.8420    8.0130   -0.2900 H         1 LIG1        0.0000
     30 H10S        9.6660    7.7300   -2.0570 H         1 LIG1        0.0000
     31 C11        11.6530    7.3310   -1.2800 C.3       1 LIG1        0.0000
     32 H11R       11.9310    6.6290   -2.0990 H         1 LIG1        0.0000
     33 H11S       12.1140    6.9520   -0.3400 H         1 LIG1        0.0000
     34 C12        12.2240    8.7190   -1.5980 C.3       1 LIG1        0.0000
     35 H12R       11.9570    9.4220   -0.7780 H         1 LIG1        0.0000
     36 H12S       11.7570    9.0980   -2.5350 H         1 LIG1        0.0000
     37 C13        13.7490    8.6970   -1.7700 C.3       1 LIG1        0.0000
     38 H13R       14.0120    7.9800   -2.5800 H         1 LIG1        0.0000
     39 H13S       14.2160    8.3290   -0.8290 H         1 LIG1        0.0000
     40 C14        14.3310   10.0740   -2.1150 C.3       1 LIG1        0.0000
     41 H14R       14.0750   10.7930   -1.3050 H         1 LIG1        0.0000
     42 H14S       13.8630   10.4430   -3.0550 H         1 LIG1        0.0000
     43 C15        15.8550   10.0360   -2.2930 C.3       1 LIG1        0.0000
     44 H15R       16.1080    9.3100   -3.0980 H         1 LIG1        0.0000
     45 H15S       16.3220    9.6720   -1.3510 H         1 LIG1        0.0000
     46 C16        16.4470   11.4050   -2.6520 C.3       1 LIG1        0.0000
     47 H16R       16.1960   12.1330   -1.8470 H         1 LIG1        0.0000
     48 H16S       15.9800   11.7690   -3.5950 H         1 LIG1        0.0000
     49 C17        17.9700   11.3570   -2.8300 C.3       1 LIG1        0.0000
     50 H17R       18.2200   10.6270   -3.6330 H         1 LIG1        0.0000
     51 H17S       18.4360   10.9950   -1.8870 H         1 LIG1        0.0000
     52 C18        18.5680   12.7230   -3.1920 C.3       1 LIG1        0.0000
     53 H18R       18.3190   13.4540   -2.3910 H         1 LIG1        0.0000
     54 H18S       18.1050   13.0850   -4.1370 H         1 LIG1        0.0000
     55 C19        20.0920   12.6700   -3.3680 C.3       1 LIG1        0.0000
     56 H19R       20.3400   11.9380   -4.1690 H         1 LIG1        0.0000
     57 H19S       20.5540   12.3070   -2.4230 H         1 LIG1        0.0000
     58 C20        20.6960   14.0340   -3.7300 C.3       1 LIG1        0.0000
     59 H20R       20.4480   14.7660   -2.9300 H         1 LIG1        0.0000
     60 H20S       20.2360   14.3970   -4.6760 H         1 LIG1        0.0000
     61 C21        22.2200   13.9750   -3.9030 C.3       1 LIG1        0.0000
     62 H21R       22.4670   13.2420   -4.7030 H         1 LIG1        0.0000
     63 H21S       22.6790   13.6110   -2.9560 H         1 LIG1        0.0000
     64 C22        22.8290   15.3360   -4.2640 C.3       1 LIG1        0.0000
     65 H22R       22.5830   16.0700   -3.4650 H         1 LIG1        0.0000
     66 H22S       22.3710   15.7010   -5.2110 H         1 LIG1        0.0000
     67 C23        24.3530   15.2760   -4.4360 C.3       1 LIG1        0.0000
     68 H23R       24.5940   14.5360   -5.2330 H         1 LIG1        0.0000
     69 H23S       24.8050   14.9040   -3.4880 H         1 LIG1        0.0000
     70 C24        24.9780   16.6260   -4.7970 C.3       1 LIG1        0.0000
     71 H24R       24.7710   17.3750   -4.0020 H         1 LIG1        0.0000
     72 H24S       24.5590   17.0050   -5.7540 H         1 LIG1        0.0000
     73 H24T       26.0790   16.5290   -4.9090 H         1 LIG1        0.0000
@<TRIPOS>BOND
     1   72   70 1 
     2   68   67 1 
     3   66   64 1 
     4   73   70 1 
     5   70   67 1 
     6   70   71 1 
     7   62   61 1 
     8   60   58 1 
     9   67   64 1 
    10   67   69 1 
    11   64   61 1 
    12   64   65 1 
    13   56   55 1 
    14   54   52 1 
    15   61   58 1 
    16   61   63 1 
    17   58   55 1 
    18   58   59 1 
    19   50   49 1 
    20   48   46 1 
    21   55   52 1 
    22   55   57 1 
    23   52   49 1 
    24   52   53 1 
    25   44   43 1 
    26   42   40 1 
    27   49   46 1 
    28   49   51 1 
    29   46   43 1 
    30   46   47 1 
    31   38   37 1 
    32   36   34 1 
    33   43   40 1 
    34   43   45 1 
    35   40   37 1 
    36   40   41 1 
    37   32   31 1 
    38   30   28 1 
    39   37   34 1 
    40   37   39 1 
    41   26   25 1 
    42   24   22 1 
    43   34   31 1 
    44   34   35 1 
    45   20   19 1 
    46   18   16 1 
    47   31   28 1 
    48   31   33 1 
    49   28   25 1 
    50   28   29 1 
    51   14   13 1 
    52   12   10 1 
    53    8    7 1 
    54    6    4 1 
    55   25   22 1 
    56   25   27 1 
    57   22   19 1 
    58   22   23 1 
    59   19   16 1 
    60   19   21 1 
    61   16   13 1 
    62   16   17 1 
    63   13   10 1 
    64   13   15 1 
    65   10    7 1 
    66   10   11 1 
    67    7    4 1 
    68    7    9 1 
    69    4    3 1 
    70    4    5 1 
    71    2    3 ar
    72    3    1 ar
