@<TRIPOS>MOLECULE
C:\Users\Praveer\PycharmProjects\pdb_to_mol2_converter\data\pdb\lignp.pdb
   74    73     0     0     0
SMALL
GASTEIGER

@<TRIPOS>ATOM
      1 H1          0.0480   -0.0970   -0.1550 H         1 LIG1        0.0000
      2 O1          0.9980   -0.0810   -0.0490 O.3       1 LIG1        0.0000
      3 O2          0.5560    2.1210   -0.1220 O.2       1 LIG1        0.0000
      4 C1          1.3850    1.2370   -0.0190 C.2       1 LIG1        0.0000
      5 C2          2.8910    1.4000    0.1500 C.3       1 LIG1        0.0000
      6 H2R         3.3970    0.8930   -0.6970 H         1 LIG1        0.0000
      7 H2S         3.1920    0.8990    1.0940 H         1 LIG1        0.0000
      8 C3          3.3050    2.8870    0.1950 C.3       1 LIG1        0.0000
      9 H3R         2.7700    3.4000    1.0270 H         1 LIG1        0.0000
     10 H3S         3.0070    3.3900   -0.7530 H         1 LIG1        0.0000
     11 C4          4.8150    3.0650    0.3990 C.3       1 LIG1        0.0000
     12 H4R         5.3620    2.5710   -0.4350 H         1 LIG1        0.0000
     13 H4S         5.1150    2.5610    1.3460 H         1 LIG1        0.0000
     14 C5          5.2270    4.5410    0.4680 C.3       1 LIG1        0.0000
     15 H5R         4.6520    5.0390    1.2810 H         1 LIG1        0.0000
     16 H5S         4.9600    5.0420   -0.4900 H         1 LIG1        0.0000
     17 C6          6.7260    4.7280    0.7350 C.3       1 LIG1        0.0000
     18 H6R         7.3100    4.2450   -0.0800 H         1 LIG1        0.0000
     19 H6S         6.9900    4.2180    1.6890 H         1 LIG1        0.0000
     20 C7          7.1220    6.2070    0.8350 C.3       1 LIG1        0.0000
     21 H7R         6.5070    6.6920    1.6260 H         1 LIG1        0.0000
     22 H7S         6.8910    6.7130   -0.1300 H         1 LIG1        0.0000
     23 C8          8.6060    6.4080    1.1690 C.3       1 LIG1        0.0000
     24 H8R         9.2300    5.9380    0.3760 H         1 LIG1        0.0000
     25 H8S         8.8340    5.8940    2.1300 H         1 LIG1        0.0000
     26 C9          8.9780    7.8910    1.2950 C.3       1 LIG1        0.0000
     27 H9R         8.3280    8.3620    2.0670 H         1 LIG1        0.0000
     28 H9S         8.7760    8.4020    0.3270 H         1 LIG1        0.0000
     29 C10        10.4460    8.1100    1.6840 C.3       1 LIG1        0.0000
     30 H10R       11.1040    7.6540    0.9100 H         1 LIG1        0.0000
     31 H10S       10.6480    7.5930    2.6490 H         1 LIG1        0.0000
     32 C11        10.7910    9.5980    1.8300 C.3       1 LIG1        0.0000
     33 H11R       10.1130   10.0530    2.5870 H         1 LIG1        0.0000
     34 H11S       10.6080   10.1120    0.8600 H         1 LIG1        0.0000
     35 C12        12.2450    9.8360    2.2590 C.3       1 LIG1        0.0000
     36 H12R       12.9290    9.3920    1.5010 H         1 LIG1        0.0000
     37 H12S       12.4280    9.3170    3.2270 H         1 LIG1        0.0000
     38 C13        12.5670   11.3270    2.4190 C.3       1 LIG1        0.0000
     39 H13R       11.8700   11.7700    3.1660 H         1 LIG1        0.0000
     40 H13S       12.3940   11.8440    1.4480 H         1 LIG1        0.0000
     41 C14        14.0100   11.5800    2.8730 C.3       1 LIG1        0.0000
     42 H14R       14.7100   11.1420    2.1260 H         1 LIG1        0.0000
     43 H14S       14.1830   11.0620    3.8430 H         1 LIG1        0.0000
     44 C15        14.3190   13.0740    3.0400 C.3       1 LIG1        0.0000
     45 H15R       13.6120   13.5100    3.7800 H         1 LIG1        0.0000
     46 H15S       14.1520   13.5900    2.0680 H         1 LIG1        0.0000
     47 C16        15.7570   13.3340    3.5070 C.3       1 LIG1        0.0000
     48 H16R       16.4660   12.8990    2.7670 H         1 LIG1        0.0000
     49 H16S       15.9240   12.8180    4.4790 H         1 LIG1        0.0000
     50 C17        16.0590   14.8300    3.6740 C.3       1 LIG1        0.0000
     51 H17R       15.3480   15.2640    4.4120 H         1 LIG1        0.0000
     52 H17S       15.8940   15.3450    2.7010 H         1 LIG1        0.0000
     53 C18        17.4950   15.0970    4.1450 C.3       1 LIG1        0.0000
     54 H18R       18.2070   14.6630    3.4080 H         1 LIG1        0.0000
     55 H18S       17.6610   14.5840    5.1190 H         1 LIG1        0.0000
     56 C19        17.7920   16.5940    4.3090 C.3       1 LIG1        0.0000
     57 H19R       17.0780   17.0280    5.0450 H         1 LIG1        0.0000
     58 H19S       17.6250   17.1060    3.3340 H         1 LIG1        0.0000
     59 C20        19.2260   16.8680    4.7790 C.3       1 LIG1        0.0000
     60 H20R       19.9410   16.4340    4.0440 H         1 LIG1        0.0000
     61 H20S       19.3940   16.3580    5.7550 H         1 LIG1        0.0000
     62 C21        19.5170   18.3660    4.9390 C.3       1 LIG1        0.0000
     63 H21R       18.8030   18.8000    5.6740 H         1 LIG1        0.0000
     64 H21S       19.3490   18.8750    3.9630 H         1 LIG1        0.0000
     65 C22        20.9510   18.6460    5.4090 C.3       1 LIG1        0.0000
     66 H22R       21.6670   18.2140    4.6740 H         1 LIG1        0.0000
     67 H22S       21.1210   18.1390    6.3850 H         1 LIG1        0.0000
     68 C23        21.2380   20.1450    5.5660 C.3       1 LIG1        0.0000
     69 H23R       20.5150   20.5730    6.2970 H         1 LIG1        0.0000
     70 H23S       21.0600   20.6480    4.5880 H         1 LIG1        0.0000
     71 C24        22.6640   20.4440    6.0340 C.3       1 LIG1        0.0000
     72 H24R       23.4040   20.0470    5.3060 H         1 LIG1        0.0000
     73 H24S       22.8560   19.9710    7.0210 H         1 LIG1        0.0000
     74 H24T       22.8220   21.5400    6.1330 H         1 LIG1        0.0000
@<TRIPOS>BOND
     1   10    8 1 
     2    6    5 1 
     3   16   14 1 
     4   12   11 1 
     5    1    2 1 
     6   22   20 1 
     7    3    4 2 
     8   18   17 1 
     9    2    4 1 
    10    4    5 1 
    11    5    8 1 
    12    5    7 1 
    13    8   11 1 
    14    8    9 1 
    15   28   26 1 
    16   24   23 1 
    17   11   14 1 
    18   11   13 1 
    19   14   17 1 
    20   14   15 1 
    21   17   20 1 
    22   17   19 1 
    23   20   23 1 
    24   20   21 1 
    25   34   32 1 
    26   30   29 1 
    27   23   26 1 
    28   23   25 1 
    29   26   29 1 
    30   26   27 1 
    31   40   38 1 
    32   36   35 1 
    33   29   32 1 
    34   29   31 1 
    35   32   35 1 
    36   32   33 1 
    37   46   44 1 
    38   42   41 1 
    39   35   38 1 
    40   35   37 1 
    41   38   41 1 
    42   38   39 1 
    43   52   50 1 
    44   48   47 1 
    45   41   44 1 
    46   41   43 1 
    47   44   47 1 
    48   44   45 1 
    49   58   56 1 
    50   54   53 1 
    51   47   50 1 
    52   47   49 1 
    53   50   53 1 
    54   50   51 1 
    55   64   62 1 
    56   60   59 1 
    57   53   56 1 
    58   53   55 1 
    59   56   59 1 
    60   56   57 1 
    61   70   68 1 
    62   66   65 1 
    63   59   62 1 
    64   59   61 1 
    65   62   65 1 
    66   62   63 1 
    67   72   71 1 
    68   65   68 1 
    69   65   67 1 
    70   68   71 1 
    71   68   69 1 
    72   71   74 1 
    73   71   73 1 
