@<TRIPOS>MOLECULE
C:\Users\Praveer\PycharmProjects\pdb_to_mol2_converter\data\pdb\lilipa.pdb
  302   303     0     0     0
SMALL
GASTEIGER

@<TRIPOS>ATOM
      1 HB6S       -7.8420    2.6260    0.9420 H         1 LIL1        0.0000
      2 OB6        -6.7880    1.1930    1.9980 O.3       1 LIL1        0.0000
      3 HOB6       -6.0970    0.5370    1.8490 H         1 LIL1        0.0000
      4 CB6        -7.0320    1.8800    0.7690 C.3       1 LIL1        0.0000
      5 HB6R       -7.3960    1.1540    0.0090 H         1 LIL1        0.0000
      6 CB5        -5.7840    2.5830    0.2700 C.3       1 LIL1        0.0000
      7 OB5        -4.7290    1.6260    0.1280 O.3       1 LIL1        0.0000
      8 HB5        -5.5010    3.3440    1.0360 H         1 LIL1        0.0000
      9 CB1        -3.4760    2.2860   -0.0570 C.3       1 LIL1        0.0000
     10 HB1        -3.2560    2.9820    0.7840 H         1 LIL1        0.0000
     11 OA6        -2.4400    1.3700   -0.2060 O.3       1 LIL1        0.0000
     12 CA6        -2.1220    0.6840    1.0000 C.3       1 LIL1        0.0000
     13 HA6R       -2.4870   -0.3660    0.9330 H         1 LIL1        0.0000
     14 HA6S       -2.5880    1.1650    1.8880 H         1 LIL1        0.0000
     15 CB4        -5.9500    3.2650   -1.0760 C.3       1 LIL1        0.0000
     16 HB4        -6.2290    2.4890   -1.8290 H         1 LIL1        0.0000
     17 OB4        -7.0130    4.2030   -0.9920 O.3       1 LIL1        0.0000
     18 HOB4       -6.7500    5.0280   -1.4410 H         1 LIL1        0.0000
     19 CB3        -4.6530    3.9320   -1.5290 C.3       1 LIL1        0.0000
     20 HB3        -4.4640    4.8000   -0.8450 H         1 LIL1        0.0000
     21 NB3        -4.7160    4.4260   -2.8910 N.am      1 LIL1        0.0000
     22 HNB3       -4.3680    3.8080   -3.5940 H         1 LIL1        0.0000
     23 C71        -5.3260    5.5610   -3.2450 C.2       1 LIL1        0.0000
     24 O71        -5.8810    6.2530   -2.3980 O.2       1 LIL1        0.0000
     25 C72        -5.7790    5.6240   -4.6780 C.3       1 LIL1        0.0000
     26 H72R       -6.7800    5.1440   -4.7230 H         1 LIL1        0.0000
     27 H72S       -5.0810    5.0520   -5.3220 H         1 LIL1        0.0000
     28 CB2        -3.4540    3.0180   -1.3770 C.3       1 LIL1        0.0000
     29 HB2        -3.5550    2.2270   -2.1680 H         1 LIL1        0.0000
     30 NB2        -2.1760    3.7190   -1.5610 N.am      1 LIL1        0.0000
     31 HNB2       -1.8150    4.1860   -0.7600 H         1 LIL1        0.0000
     32 CA4        -0.0020    2.0850    1.1820 C.3       1 LIL1        0.0000
     33 HA4        -0.3350    2.6400    0.2760 H         1 LIL1        0.0000
     34 OA4        -0.4900    2.7850    2.3210 O.3       1 LIL1        0.0000
     35 HOA4        0.2600    2.8960    2.9360 H         1 LIL1        0.0000
     36 CA5        -0.6180    0.6960    1.1240 C.3       1 LIL1        0.0000
     37 HA5        -0.3560    0.1360    2.0540 H         1 LIL1        0.0000
     38 OA5        -0.1190    0.0250   -0.0390 O.3       1 LIL1        0.0000
     39 CA1         1.2840   -0.1880    0.0130 C.3       1 LIL1        0.0000
     40 HA1         1.5400   -0.7060   -0.9480 H         1 LIL1        0.0000
     41 PA          2.5490   -2.2650    1.0310 P.3       1 LIL1        0.0000
     42 OPA3        2.1360   -3.0790   -0.1880 O.2       1 LIL1        0.0000
     43 OPA4        3.9820   -1.7430    1.0750 O.3       1 LIL1        0.0000
     44 OA1         1.5790   -0.9570    1.1600 O.3       1 LIL1        0.0000
     45 OPA2        2.1650   -3.0810    2.4250 O.3       1 LIL1        0.0000
     46 CP1         2.3040   -4.4980    2.4390 C.3       1 LIL1        0.0000
     47 HP1         3.3500   -4.7730    2.6950 H         1 LIL1        0.0000
     48 HP2         2.0310   -4.9700    1.4640 H         1 LIL1        0.0000
     49 HP3         1.6320   -4.9280    3.2140 H         1 LIL1        0.0000
     50 CA3         1.5230    2.0490    1.1520 C.3       1 LIL1        0.0000
     51 HA3         1.8690    1.5470    2.0920 H         1 LIL1        0.0000
     52 NA3         2.1160    3.3840    1.0900 N.am      1 LIL1        0.0000
     53 HNA3        2.4230    3.6940    0.1940 H         1 LIL1        0.0000
     54 C31         2.2450    4.1700    2.1720 C.2       1 LIL1        0.0000
     55 O31         1.8900    3.7690    3.2770 O.2       1 LIL1        0.0000
     56 C32         2.6820    5.6380    2.0160 C.3       1 LIL1        0.0000
     57 H32R        3.7710    5.6640    1.8100 H         1 LIL1        0.0000
     58 H32S        2.5230    6.0790    3.0290 H         1 LIL1        0.0000
     59 CA2         2.0060    1.1440    0.0260 C.3       1 LIL1        0.0000
     60 HA2         1.6940    1.6500   -0.9240 H         1 LIL1        0.0000
     61 NA2         3.4420    0.9150   -0.0420 N.am      1 LIL1        0.0000
     62 HNA2        3.7230    0.0150    0.3110 H         1 LIL1        0.0000
     63 C73        -5.8660    7.0830   -5.1690 C.3       1 LIL1        0.0000
     64 H73R       -6.5980    7.6620   -4.5550 H         1 LIL1        0.0000
     65 O73        -6.2560    7.0420   -6.5370 O.3       1 LIL1        0.0000
     66 C81        -7.5250    6.7510   -6.7730 C.2       1 LIL1        0.0000
     67 O81        -8.3870    6.6140   -5.9370 O.2       1 LIL1        0.0000
     68 C82        -7.6670    6.2880   -8.2320 C.3       1 LIL1        0.0000
     69 H82R       -8.2790    7.0560   -8.7470 H         1 LIL1        0.0000
     70 H82S       -8.2430    5.3380   -8.2190 H         1 LIL1        0.0000
     71 C83        -6.3340    6.0810   -8.9980 C.3       1 LIL1        0.0000
     72 H83R       -5.9390    5.0610   -8.7960 H         1 LIL1        0.0000
     73 H83S       -5.5560    6.8080   -8.6760 H         1 LIL1        0.0000
     74 C84        -6.4910    6.3040  -10.5040 C.3       1 LIL1        0.0000
     75 H84R       -6.8910    7.3330  -10.6650 H         1 LIL1        0.0000
     76 H84S       -7.2410    5.5890  -10.9070 H         1 LIL1        0.0000
     77 C85        -5.1630    6.1620  -11.2680 C.3       1 LIL1        0.0000
     78 H85R       -5.3280    5.4790  -12.1310 H         1 LIL1        0.0000
     79 H85S       -4.3950    5.6970  -10.6100 H         1 LIL1        0.0000
     80 C86        -4.6580    7.5190  -11.7890 C.3       1 LIL1        0.0000
     81 H86R       -4.4130    8.1670  -10.9170 H         1 LIL1        0.0000
     82 H86S       -5.5240    7.9890  -12.3070 H         1 LIL1        0.0000
     83 C87        -3.4640    7.4230  -12.7080 C.2       1 LIL1        0.0000
     84 H87R       -2.6130    6.8480  -12.3110 H         1 LIL1        0.0000
     85 C88        -3.3730    7.9600  -13.9410 C.2       1 LIL1        0.0000
     86 H88R       -2.4470    7.8130  -14.5190 H         1 LIL1        0.0000
     87 C89        -4.4470    8.7620  -14.6360 C.3       1 LIL1        0.0000
     88 H89R       -5.3810    8.1580  -14.6900 H         1 LIL1        0.0000
     89 H89S       -4.1470    8.9740  -15.6870 H         1 LIL1        0.0000
     90 C810       -4.7840   10.1070  -13.9570 C.3       1 LIL1        0.0000
     91 H810       -3.9030   10.7840  -13.9960 H         1 LIL1        0.0000
     92 H810       -5.0130    9.9420  -12.8820 H         1 LIL1        0.0000
     93 C811       -5.9970   10.8040  -14.5900 C.3       1 LIL1        0.0000
     94 H811       -6.6600   10.0420  -15.0610 H         1 LIL1        0.0000
     95 H811       -5.6420   11.4820  -15.3960 H         1 LIL1        0.0000
     96 C812       -6.8440   11.5850  -13.5720 C.3       1 LIL1        0.0000
     97 H812       -6.1900   12.0730  -12.8170 H         1 LIL1        0.0000
     98 H812       -7.4890   10.8580  -13.0280 H         1 LIL1        0.0000
     99 C813       -7.7230   12.6550  -14.2350 C.3       1 LIL1        0.0000
    100 H813       -7.8850   12.3760  -15.3020 H         1 LIL1        0.0000
    101 H813       -7.1690   13.6220  -14.2290 H         1 LIL1        0.0000
    102 C814       -9.0910   12.8360  -13.5730 C.3       1 LIL1        0.0000
    103 H814       -8.9800   13.0850  -12.4960 H         1 LIL1        0.0000
    104 H814       -9.6860   11.9010  -13.6590 H         1 LIL1        0.0000
    105 H814       -9.6570   13.6540  -14.0700 H         1 LIL1        0.0000
    106 C74        -4.5090    7.8220   -5.1300 C.3       1 LIL1        0.0000
    107 H74R       -3.7600    7.1740   -5.6290 H         1 LIL1        0.0000
    108 H74S       -4.1970    7.9420   -4.0690 H         1 LIL1        0.0000
    109 C75        -4.5280    9.2140   -5.8090 C.3       1 LIL1        0.0000
    110 H75R       -3.9010    9.9180   -5.2180 H         1 LIL1        0.0000
    111 H75S       -5.5740    9.5950   -5.7940 H         1 LIL1        0.0000
    112 C76        -4.0010    9.2090   -7.2570 C.3       1 LIL1        0.0000
    113 H76R       -4.2510    8.2370   -7.7330 H         1 LIL1        0.0000
    114 H76S       -2.8950    9.2800   -7.2310 H         1 LIL1        0.0000
    115 C77        -4.5100   10.3490   -8.1560 C.3       1 LIL1        0.0000
    116 H77R       -5.2430   10.9780   -7.6100 H         1 LIL1        0.0000
    117 H77S       -5.0390    9.8810   -9.0190 H         1 LIL1        0.0000
    118 C78        -3.3710   11.2250   -8.7120 C.3       1 LIL1        0.0000
    119 H78R       -2.5710   10.5400   -9.0750 H         1 LIL1        0.0000
    120 H78S       -2.9330   11.8520   -7.9040 H         1 LIL1        0.0000
    121 C79        -3.7980   12.1080   -9.8950 C.3       1 LIL1        0.0000
    122 H79R       -4.3460   13.0050   -9.5340 H         1 LIL1        0.0000
    123 H79S       -4.4990   11.5150  -10.5250 H         1 LIL1        0.0000
    124 C710       -2.6130   12.5220  -10.7850 C.3       1 LIL1        0.0000
    125 H710       -1.9900   11.6130  -10.9540 H         1 LIL1        0.0000
    126 H710       -1.9720   13.2690  -10.2690 H         1 LIL1        0.0000
    127 C711       -3.0430   13.0440  -12.1650 C.3       1 LIL1        0.0000
    128 H711       -4.0020   12.5590  -12.4530 H         1 LIL1        0.0000
    129 H711       -2.2820   12.7240  -12.9140 H         1 LIL1        0.0000
    130 C712       -3.1910   14.5650  -12.2560 C.3       1 LIL1        0.0000
    131 H712       -2.2130   15.0600  -12.0720 H         1 LIL1        0.0000
    132 H712       -3.9230   14.9350  -11.5070 H         1 LIL1        0.0000
    133 H712       -3.5450   14.8570  -13.2690 H         1 LIL1        0.0000
    134 C51        -1.3640    3.6010   -2.6330 C.2       1 LIL1        0.0000
    135 O51        -1.7580    3.1070   -3.6850 O.2       1 LIL1        0.0000
    136 C52         0.0840    4.1070   -2.4710 C.3       1 LIL1        0.0000
    137 H52R        0.7080    3.2250   -2.2310 H         1 LIL1        0.0000
    138 H52S        0.1230    4.8050   -1.6110 H         1 LIL1        0.0000
    139 C53         0.6690    4.8330   -3.7280 C.3       1 LIL1        0.0000
    140 H53R        0.7210    4.0900   -4.5580 H         1 LIL1        0.0000
    141 O53         2.0220    5.3260   -3.3760 O.3       1 LIL1        0.0000
    142 C61         3.1130    4.4670   -3.4600 C.2       1 LIL1        0.0000
    143 O61         2.9620    3.3500   -3.9160 O.2       1 LIL1        0.0000
    144 C62         4.6900    4.9470   -3.2860 C.3       1 LIL1        0.0000
    145 H62R        5.1570    4.5010   -4.1810 H         1 LIL1        0.0000
    146 H62S        5.0000    4.2870   -2.4610 H         1 LIL1        0.0000
    147 C63         5.5790    6.2760   -2.9320 C.3       1 LIL1        0.0000
    148 H63R        6.5980    5.9120   -2.6580 H         1 LIL1        0.0000
    149 H63S        5.2160    6.7480   -1.9990 H         1 LIL1        0.0000
    150 C64         5.9120    7.2640   -4.0990 C.3       1 LIL1        0.0000
    151 H64R        4.9450    7.6060   -4.4450 H         1 LIL1        0.0000
    152 H64S        6.4110    6.7450   -4.9510 H         1 LIL1        0.0000
    153 C65         6.3540    8.7540   -3.9290 C.3       1 LIL1        0.0000
    154 H65R        7.4300    8.8690   -3.8310 H         1 LIL1        0.0000
    155 H65S        5.9080    9.2250   -3.0340 H         1 LIL1        0.0000
    156 C66         5.8860    9.5570   -5.1930 C.3       1 LIL1        0.0000
    157 H66R        4.7840    9.5260   -5.1020 H         1 LIL1        0.0000
    158 H66S        6.1390    8.8620   -6.0130 H         1 LIL1        0.0000
    159 C67         6.2210   10.9640   -5.6370 C.2       1 LIL1        0.0000
    160 H67R        6.1660   11.7260   -4.8450 H         1 LIL1        0.0000
    161 C68         6.3540   11.3610   -6.9310 C.2       1 LIL1        0.0000
    162 H68R        6.5400   12.4260   -7.1390 H         1 LIL1        0.0000
    163 C69         6.3450   10.4750   -8.1640 C.3       1 LIL1        0.0000
    164 H69R        5.2960   10.2910   -8.4820 H         1 LIL1        0.0000
    165 H69S        6.8040    9.4820   -7.9440 H         1 LIL1        0.0000
    166 C610        7.1060   11.0460   -9.3860 C.3       1 LIL1        0.0000
    167 H610        8.1700   11.1830   -9.1010 H         1 LIL1        0.0000
    168 H610        6.6950   12.0430   -9.6620 H         1 LIL1        0.0000
    169 C611        7.0340   10.1200  -10.6180 C.3       1 LIL1        0.0000
    170 H611        6.0080   10.1840  -11.0440 H         1 LIL1        0.0000
    171 H611        7.2020    9.0660  -10.2970 H         1 LIL1        0.0000
    172 C612        8.0610   10.4490  -11.7180 C.3       1 LIL1        0.0000
    173 H612        9.0750   10.1570  -11.3660 H         1 LIL1        0.0000
    174 H612        8.0730   11.5450  -11.9090 H         1 LIL1        0.0000
    175 C613        7.7570    9.7250  -13.0410 C.3       1 LIL1        0.0000
    176 H613        6.8110   10.1370  -13.4590 H         1 LIL1        0.0000
    177 H613        7.5830    8.6460  -12.8300 H         1 LIL1        0.0000
    178 C614        8.8620    9.8470  -14.0970 C.3       1 LIL1        0.0000
    179 H614        9.7920    9.3510  -13.7460 H         1 LIL1        0.0000
    180 H614        9.0910   10.9120  -14.3090 H         1 LIL1        0.0000
    181 H614        8.5490    9.3630  -15.0470 H         1 LIL1        0.0000
    182 C54        -0.3760    5.9600   -4.2250 C.3       1 LIL1        0.0000
    183 H54R       -0.4570    6.7280   -3.4350 H         1 LIL1        0.0000
    184 H54S       -1.3660    5.4680   -4.3070 H         1 LIL1        0.0000
    185 C55        -0.2310    6.6390   -5.6340 C.3       1 LIL1        0.0000
    186 H55R       -0.0720    5.8920   -6.4360 H         1 LIL1        0.0000
    187 H55S        0.6520    7.2470   -5.5470 H         1 LIL1        0.0000
    188 C56        -1.0470    7.8680   -6.1370 C.3       1 LIL1        0.0000
    189 H56R       -1.2810    8.5460   -5.2960 H         1 LIL1        0.0000
    190 H56S       -1.9870    7.5050   -6.5860 H         1 LIL1        0.0000
    191 C57        -0.2570    8.6570   -7.2440 C.3       1 LIL1        0.0000
    192 H57R       -0.5920    8.2960   -8.2430 H         1 LIL1        0.0000
    193 H57S        0.7940    8.3440   -7.1460 H         1 LIL1        0.0000
    194 C58        -0.1410   10.2130   -7.2700 C.3       1 LIL1        0.0000
    195 H58R        0.4820   10.5700   -6.4140 H         1 LIL1        0.0000
    196 H58S       -1.1380   10.6900   -7.1860 H         1 LIL1        0.0000
    197 C59         0.5210   10.6430   -8.6160 C.3       1 LIL1        0.0000
    198 H59R       -0.1760   10.3850   -9.4460 H         1 LIL1        0.0000
    199 H59S        1.4280   10.0150   -8.7570 H         1 LIL1        0.0000
    200 C510        0.9440   12.1200   -8.8060 C.3       1 LIL1        0.0000
    201 H510        1.6770   12.4010   -8.0180 H         1 LIL1        0.0000
    202 H510        0.0450   12.7620   -8.6840 H         1 LIL1        0.0000
    203 C511        1.5880   12.3850  -10.1940 C.3       1 LIL1        0.0000
    204 H511        1.1270   11.6940  -10.9380 H         1 LIL1        0.0000
    205 H511        2.6740   12.1380  -10.1430 H         1 LIL1        0.0000
    206 C512        1.4130   13.8250  -10.7270 C.3       1 LIL1        0.0000
    207 H512        1.6010   14.5620   -9.9170 H         1 LIL1        0.0000
    208 H512        0.3490   13.9360  -11.0400 H         1 LIL1        0.0000
    209 C513        2.3190   14.1570  -11.9340 C.3       1 LIL1        0.0000
    210 H513        1.7480   14.7570  -12.6780 H         1 LIL1        0.0000
    211 H513        2.6060   13.2080  -12.4400 H         1 LIL1        0.0000
    212 C514        3.5900   14.9440  -11.5570 C.3       1 LIL1        0.0000
    213 H514        4.4530   14.5710  -12.1520 H         1 LIL1        0.0000
    214 H514        3.8210   14.7440  -10.4870 H         1 LIL1        0.0000
    215 C515        3.4740   16.4630  -11.7840 C.3       1 LIL1        0.0000
    216 H515        4.0290   16.9840  -10.9700 H         1 LIL1        0.0000
    217 H515        2.4080   16.7710  -11.6980 H         1 LIL1        0.0000
    218 C516        4.0480   16.9390  -13.1240 C.3       1 LIL1        0.0000
    219 H516        3.5480   16.4250  -13.9720 H         1 LIL1        0.0000
    220 H516        5.1370   16.7250  -13.1780 H         1 LIL1        0.0000
    221 H516        3.9050   18.0350  -13.2450 H         1 LIL1        0.0000
    222 C33         1.9090    6.5400    0.9960 C.3       1 LIL1        0.0000
    223 H33R        1.9060    7.5730    1.4230 H         1 LIL1        0.0000
    224 O33         0.5570    6.1270    0.8480 O.3       1 LIL1        0.0000
    225 HO33        0.0840    6.0130    1.6790 H         1 LIL1        0.0000
    226 C34         2.5910    6.6410   -0.3940 C.3       1 LIL1        0.0000
    227 H34R        2.5460    5.6350   -0.8650 H         1 LIL1        0.0000
    228 H34S        3.6640    6.8790   -0.2260 H         1 LIL1        0.0000
    229 C35         2.0380    7.7200   -1.3890 C.3       1 LIL1        0.0000
    230 H35R        1.9010    8.6860   -0.8470 H         1 LIL1        0.0000
    231 H35S        1.0610    7.3600   -1.7630 H         1 LIL1        0.0000
    232 C36         2.9630    7.8970   -2.6410 C.3       1 LIL1        0.0000
    233 H36R        3.3460    6.8830   -2.6920 H         1 LIL1        0.0000
    234 H36S        3.8050    8.5460   -2.3640 H         1 LIL1        0.0000
    235 C37         2.4200    8.0480   -4.1160 C.3       1 LIL1        0.0000
    236 H37R        2.5080    9.0710   -4.5190 H         1 LIL1        0.0000
    237 H37S        1.3470    7.9050   -3.8750 H         1 LIL1        0.0000
    238 C38         2.8890    7.0400   -5.2880 C.3       1 LIL1        0.0000
    239 H38R        2.1740    6.2340   -5.5310 H         1 LIL1        0.0000
    240 H38S        3.6460    6.3520   -4.9530 H         1 LIL1        0.0000
    241 C39         3.4230    7.5490   -6.6470 C.3       1 LIL1        0.0000
    242 H39R        4.3640    8.1150   -6.5370 H         1 LIL1        0.0000
    243 H39S        2.6830    8.2140   -7.1100 H         1 LIL1        0.0000
    244 C310        3.7640    6.4210   -7.6540 C.3       1 LIL1        0.0000
    245 H310        2.9670    5.6420   -7.7130 H         1 LIL1        0.0000
    246 H310        4.6650    5.9000   -7.2610 H         1 LIL1        0.0000
    247 C311        4.0690    7.0080   -9.0510 C.3       1 LIL1        0.0000
    248 H311        4.3930    8.0720   -8.9190 H         1 LIL1        0.0000
    249 H311        3.1170    7.0020   -9.6360 H         1 LIL1        0.0000
    250 C312        5.1810    6.3100   -9.8510 C.3       1 LIL1        0.0000
    251 H312        4.8950    5.2710  -10.1220 H         1 LIL1        0.0000
    252 H312        6.1380    6.2980   -9.2810 H         1 LIL1        0.0000
    253 H312        5.3600    6.8640  -10.7990 H         1 LIL1        0.0000
    254 C11         4.2420    1.5850   -0.8810 C.2       1 LIL1        0.0000
    255 O11         4.1130    2.7910   -1.0420 O.2       1 LIL1        0.0000
    256 C12         5.2200    0.7390   -1.6920 C.3       1 LIL1        0.0000
    257 H12R        4.5850   -0.0010   -2.2330 H         1 LIL1        0.0000
    258 H12S        5.8850    0.1780   -1.0110 H         1 LIL1        0.0000
    259 C13         6.0460    1.5170   -2.7500 C.3       1 LIL1        0.0000
    260 H13R        5.4200    2.3090   -3.2130 H         1 LIL1        0.0000
    261 O13         6.3860    0.5940   -3.7680 O.3       1 LIL1        0.0000
    262 HO13        6.6350    1.0060   -4.5970 H         1 LIL1        0.0000
    263 C14         7.3690    2.1030   -2.1950 C.3       1 LIL1        0.0000
    264 H14R        7.8190    1.3050   -1.5630 H         1 LIL1        0.0000
    265 H14S        7.1200    2.9520   -1.5260 H         1 LIL1        0.0000
    266 C15         8.4860    2.5270   -3.1970 C.3       1 LIL1        0.0000
    267 H15R        8.7720    1.6580   -3.8320 H         1 LIL1        0.0000
    268 H15S        9.3760    2.8170   -2.5870 H         1 LIL1        0.0000
    269 C16         8.1520    3.7310   -4.0910 C.3       1 LIL1        0.0000
    270 H16R        7.4550    4.3690   -3.5220 H         1 LIL1        0.0000
    271 H16S        7.6070    3.4060   -5.0000 H         1 LIL1        0.0000
    272 C17         9.3500    4.6240   -4.5030 C.3       1 LIL1        0.0000
    273 H17R        9.9930    4.0760   -5.2210 H         1 LIL1        0.0000
    274 H17S        9.9430    4.8780   -3.5950 H         1 LIL1        0.0000
    275 C18         8.8620    5.9360   -5.1420 C.3       1 LIL1        0.0000
    276 H18R        8.3770    6.5160   -4.3280 H         1 LIL1        0.0000
    277 H18S        8.0740    5.6840   -5.8810 H         1 LIL1        0.0000
    278 C19         9.8720    6.8780   -5.8320 C.3       1 LIL1        0.0000
    279 H19R       10.4640    6.3370   -6.6050 H         1 LIL1        0.0000
    280 H19S       10.5570    7.2700   -5.0490 H         1 LIL1        0.0000
    281 C110        9.1100    8.0590   -6.4780 C.3       1 LIL1        0.0000
    282 H110        8.2800    8.3150   -5.7780 H         1 LIL1        0.0000
    283 H110        8.6380    7.7340   -7.4300 H         1 LIL1        0.0000
    284 C111        9.8770    9.3800   -6.6890 C.3       1 LIL1        0.0000
    285 H111       10.5090    9.6200   -5.8080 H         1 LIL1        0.0000
    286 H111        9.0970   10.1780   -6.7570 H         1 LIL1        0.0000
    287 C112       10.6980    9.4750   -7.9870 C.3       1 LIL1        0.0000
    288 H112       10.1460    8.9620   -8.8070 H         1 LIL1        0.0000
    289 H112       11.6590    8.9370   -7.8470 H         1 LIL1        0.0000
    290 C113       10.9390   10.9390   -8.4190 C.3       1 LIL1        0.0000
    291 H113       10.5670   11.6110   -7.6110 H         1 LIL1        0.0000
    292 H113       10.3160   11.1570   -9.3130 H         1 LIL1        0.0000
    293 C114       12.4050   11.3180   -8.6980 C.3       1 LIL1        0.0000
    294 H114       13.0820   10.4830   -8.4160 H         1 LIL1        0.0000
    295 H114       12.6640   12.1750   -8.0330 H         1 LIL1        0.0000
    296 C115       12.6870   11.7450  -10.1500 C.3       1 LIL1        0.0000
    297 H115       11.7390   11.7630  -10.7320 H         1 LIL1        0.0000
    298 H115       13.3420   10.9810  -10.6270 H         1 LIL1        0.0000
    299 C116       13.3490   13.1230  -10.2640 C.3       1 LIL1        0.0000
    300 H116       14.3120   13.1410   -9.7110 H         1 LIL1        0.0000
    301 H116       12.6860   13.9080   -9.8380 H         1 LIL1        0.0000
    302 H116       13.5500   13.3750  -11.3280 H         1 LIL1        0.0000
@<TRIPOS>BOND
     1   89   87 1 
     2   95   93 1 
     3  100   99 1 
     4   94   93 1 
     5  181  178 1 
     6   88   87 1 
     7   87   90 1 
     8   87   85 1 
     9   93   90 1 
    10   93   96 1 
    11   86   85 1 
    12  180  178 1 
    13   99  101 1 
    14   99  102 1 
    15   99   96 1 
    16  178  179 1 
    17  178  175 1 
    18  105  102 1 
    19   91   90 1 
    20  219  218 1 
    21   90   92 1 
    22   85   83 2 
    23  104  102 1 
    24  102  103 1 
    25   96   98 1 
    26   96   97 1 
    27  176  175 1 
    28  133  130 1 
    29  221  218 1 
    30  220  218 1 
    31  218  215 1 
    32  175  177 1 
    33  175  172 1 
    34  129  127 1 
    35   83   84 1 
    36   83   80 1 
    37  210  209 1 
    38  128  127 1 
    39  211  209 1 
    40   82   80 1 
    41  130  127 1 
    42  130  131 1 
    43  130  132 1 
    44  127  124 1 
    45  213  212 1 
    46   78   77 1 
    47  209  212 1 
    48  209  206 1 
    49  174  172 1 
    50   80   77 1 
    51   80   81 1 
    52  215  217 1 
    53  215  212 1 
    54  215  216 1 
    55  172  173 1 
    56  172  169 1 
    57  212  214 1 
    58  302  299 1 
    59   77   79 1 
    60   77   74 1 
    61  170  169 1 
    62  208  206 1 
    63  125  124 1 
    64  204  203 1 
    65   76   74 1 
    66  253  250 1 
    67  124  126 1 
    68  124  121 1 
    69  297  296 1 
    70  206  203 1 
    71  206  207 1 
    72   75   74 1 
    73  298  296 1 
    74  169  171 1 
    75  169  166 1 
    76  123  121 1 
    77   74   71 1 
    78  299  296 1 
    79  299  301 1 
    80  299  300 1 
    81  203  205 1 
    82  203  200 1 
    83  296  293 1 
    84  251  250 1 
    85  121  122 1 
    86  121  118 1 
    87  250  252 1 
    88  250  247 1 
    89  168  166 1 
    90  249  247 1 
    91  198  197 1 
    92  166  167 1 
    93  166  163 1 
    94  292  290 1 
    95  119  118 1 
    96  247  248 1 
    97  247  244 1 
    98  117  115 1 
    99   71   72 1 
   100   71   73 1 
   101   71   68 1 
   102  288  287 1 
   103  200  202 1 
   104  200  197 1 
   105  200  201 1 
   106  199  197 1 
   107   69   68 1 
   108  118  115 1 
   109  118  120 1 
   110  293  290 1 
   111  293  294 1 
   112  293  295 1 
   113  197  194 1 
   114  164  163 1 
   115  290  287 1 
   116  290  291 1 
   117  192  191 1 
   118   68   70 1 
   119   68   66 1 
   120  163  165 1 
   121  163  161 1 
   122  115  116 1 
   123  115  112 1 
   124  287  289 1 
   125  287  284 1 
   126  113  112 1 
   127  245  244 1 
   128  244  246 1 
   129  244  241 1 
   130  283  281 1 
   131  194  191 1 
   132  194  196 1 
   133  194  195 1 
   134  112  114 1 
   135  112  109 1 
   136  191  193 1 
   137  191  188 1 
   138  162  161 1 
   139  243  241 1 
   140  161  159 2 
   141   66   65 1 
   142   66   67 2 
   143  286  284 1 
   144  284  281 1 
   145  284  285 1 
   146  241  242 1 
   147  241  238 1 
   148  279  278 1 
   149  190  188 1 
   150   65   63 1 
   151  281  278 1 
   152  281  282 1 
   153  186  185 1 
   154  188  185 1 
   155  188  189 1 
   156  158  156 1 
   157  277  275 1 
   158  278  275 1 
   159  278  280 1 
   160  109  111 1 
   161  109  110 1 
   162  109  106 1 
   163  159  156 1 
   164  159  160 1 
   165  185  187 1 
   166  185  182 1 
   167  107  106 1 
   168  239  238 1 
   169   27   25 1 
   170  238  240 1 
   171  238  235 1 
   172  273  272 1 
   173  156  157 1 
   174  156  153 1 
   175   63  106 1 
   176   63   25 1 
   177   63   64 1 
   178  275  272 1 
   179  275  276 1 
   180  106  108 1 
   181  271  269 1 
   182  152  150 1 
   183   26   25 1 
   184   25   23 1 
   185  262  261 1 
   186  140  139 1 
   187  236  235 1 
   188  272  269 1 
   189  272  274 1 
   190  151  150 1 
   191  184  182 1 
   192  182  139 1 
   193  182  183 1 
   194  145  144 1 
   195  235  237 1 
   196  235  232 1 
   197  150  153 1 
   198  150  147 1 
   199  269  270 1 
   200  269  266 1 
   201  153  154 1 
   202  153  155 1 
   203  143  142 2 
   204  267  266 1 
   205  261  259 1 
   206  139  141 1 
   207  139  136 1 
   208  135  134 2 
   209   22   21 1 
   210  142  141 1 
   211  142  144 1 
   212  144  147 1 
   213  144  146 1 
   214   23   21 am
   215   23   24 2 
   216  260  259 1 
   217  266  268 1 
   218  266  263 1 
   219  147  148 1 
   220  147  149 1 
   221   21   19 1 
   222  259  263 1 
   223  259  256 1 
   224  233  232 1 
   225  232  234 1 
   226  232  229 1 
   227  134  136 1 
   228  134   30 am
   229  136  137 1 
   230  136  138 1 
   231  257  256 1 
   232  263  264 1 
   233  263  265 1 
   234   29   28 1 
   235   16   15 1 
   236  231  229 1 
   237  256  258 1 
   238  256  254 1 
   239   30   28 1 
   240   30   31 1 
   241   19   28 1 
   242   19   15 1 
   243   19   20 1 
   244   18   17 1 
   245  229  230 1 
   246  229  226 1 
   247   28    9 1 
   248   15   17 1 
   249   15    6 1 
   250  255  254 2 
   251   40   39 1 
   252   60   59 1 
   253  254   61 am
   254  227  226 1 
   255  226  228 1 
   256  226  222 1 
   257   11    9 1 
   258   11   12 1 
   259   42   41 2 
   260    9    7 1 
   261    9   10 1 
   262   61   59 1 
   263   61   62 1 
   264   38   39 1 
   265   38   36 1 
   266    5    4 1 
   267   39   59 1 
   268   39   44 1 
   269   59   50 1 
   270    7    6 1 
   271   53   52 1 
   272    6    4 1 
   273    6    8 1 
   274   33   32 1 
   275    4    1 1 
   276    4    2 1 
   277  224  222 1 
   278  224  225 1 
   279   13   12 1 
   280  222  223 1 
   281  222   56 1 
   282   12   36 1 
   283   12   14 1 
   284   41   43 1 
   285   41   44 1 
   286   41   45 1 
   287   52   50 1 
   288   52   54 am
   289   36   32 1 
   290   36   37 1 
   291   50   32 1 
   292   50   51 1 
   293   32   34 1 
   294   48   46 1 
   295   57   56 1 
   296    3    2 1 
   297   56   54 1 
   298   56   58 1 
   299   54   55 2 
   300   34   35 1 
   301   45   46 1 
   302   46   47 1 
   303   46   49 1 
