@<TRIPOS>MOLECULE
C:\Users\Praveer\PycharmProjects\pdb_to_mol2_converter\data\pdb\lin.pdb
   51    50     0     0     0
SMALL
GASTEIGER

@<TRIPOS>ATOM
      1 O1         -0.0040    0.0260   -0.0290 O.co2     1 LIN1        0.0000
      2 O2          1.9520   -1.0320    0.0130 O.co2     1 LIN1        0.0000
      3 C1          1.2550    0.0150   -0.0100 C.2       1 LIN1        0.0000
      4 C2          1.9530    1.3750   -0.0130 C.3       1 LIN1        0.0000
      5 H2R         1.5950    1.9290    0.8780 H         1 LIN1        0.0000
      6 H2S         1.6200    1.9130   -0.9240 H         1 LIN1        0.0000
      7 C3          3.4950    1.2730    0.0090 C.3       1 LIN1        0.0000
      8 H3R         3.8320    0.6960   -0.8810 H         1 LIN1        0.0000
      9 H3S         3.8040    0.6990    0.9120 H         1 LIN1        0.0000
     10 C4          4.1710    2.6490    0.0210 C.3       1 LIN1        0.0000
     11 H4R         3.8160    3.2120    0.9120 H         1 LIN1        0.0000
     12 H4S         3.8560    3.2130   -0.8860 H         1 LIN1        0.0000
     13 C5          5.7020    2.5540    0.0570 C.3       1 LIN1        0.0000
     14 H5R         6.0520    2.0060   -0.8460 H         1 LIN1        0.0000
     15 H5S         6.0010    1.9590    0.9490 H         1 LIN1        0.0000
     16 C6          6.3820    3.9290    0.1160 C.3       1 LIN1        0.0000
     17 H6R         6.0170    4.4700    1.0180 H         1 LIN1        0.0000
     18 H6S         6.0860    4.5230   -0.7770 H         1 LIN1        0.0000
     19 C7          7.9130    3.8270    0.1760 C.3       1 LIN1        0.0000
     20 H7R         8.2720    3.3200   -0.7490 H         1 LIN1        0.0000
     21 H7S         8.1850    3.1850    1.0440 H         1 LIN1        0.0000
     22 C8          8.5930    5.2020    0.3150 C.3       1 LIN1        0.0000
     23 H8R         8.2020    5.6910    1.2350 H         1 LIN1        0.0000
     24 H8S         8.2800    5.8290   -0.5490 H         1 LIN1        0.0000
     25 C9         10.0940    5.0680    0.4050 C.2       1 LIN1        0.0000
     26 H9R        10.4390    4.2280    1.0270 H         1 LIN1        0.0000
     27 C10        11.0170    5.8380   -0.2050 C.2       1 LIN1        0.0000
     28 H10R       12.0790    5.5950   -0.0480 H         1 LIN1        0.0000
     29 C11        10.7560    7.0390   -1.0860 C.3       1 LIN1        0.0000
     30 H11R        9.7050    7.3830   -0.9840 H         1 LIN1        0.0000
     31 H11S       10.8740    6.7300   -2.1480 H         1 LIN1        0.0000
     32 C12        11.7230    8.1660   -0.8030 C.2       1 LIN1        0.0000
     33 H12R       12.7610    7.8540   -0.6060 H         1 LIN1        0.0000
     34 C13        11.4400    9.4830   -0.7550 C.2       1 LIN1        0.0000
     35 H13R       12.2550   10.1880   -0.5270 H         1 LIN1        0.0000
     36 C14        10.1040   10.1380   -1.0080 C.3       1 LIN1        0.0000
     37 H14R        9.6710   10.4970   -0.0480 H         1 LIN1        0.0000
     38 H14S        9.3680    9.4320   -1.4530 H         1 LIN1        0.0000
     39 C15        10.2360   11.3420   -1.9600 C.3       1 LIN1        0.0000
     40 H15R       10.6550   11.0030   -2.9350 H         1 LIN1        0.0000
     41 H15S       10.9400   12.0870   -1.5260 H         1 LIN1        0.0000
     42 C16         8.8900   12.0350   -2.2170 C.3       1 LIN1        0.0000
     43 H16R        8.4520   12.3530   -1.2440 H         1 LIN1        0.0000
     44 H16S        8.1870   11.3070   -2.6810 H         1 LIN1        0.0000
     45 C17         9.0190   13.2620   -3.1290 C.3       1 LIN1        0.0000
     46 H17R        9.4660   12.9420   -4.0980 H         1 LIN1        0.0000
     47 H17S        9.7240   13.9850   -2.6590 H         1 LIN1        0.0000
     48 C18         7.6840   13.9610   -3.3970 C.3       1 LIN1        0.0000
     49 H18R        7.2280   14.3050   -2.4430 H         1 LIN1        0.0000
     50 H18S        6.9740   13.2660   -3.8930 H         1 LIN1        0.0000
     51 H18T        7.8300   14.8440   -4.0550 H         1 LIN1        0.0000
@<TRIPOS>BOND
     1   46   45 1 
     2   51   48 1 
     3   50   48 1 
     4   48   45 1 
     5   48   49 1 
     6   45   47 1 
     7   45   42 1 
     8   40   39 1 
     9   44   42 1 
    10   42   39 1 
    11   42   43 1 
    12   31   29 1 
    13   39   41 1 
    14   39   36 1 
    15   38   36 1 
    16   29   30 1 
    17   29   32 1 
    18   29   27 1 
    19   36   34 1 
    20   36   37 1 
    21    6    4 1 
    22   12   10 1 
    23    8    7 1 
    24   14   13 1 
    25   32   34 2 
    26   32   33 1 
    27   18   16 1 
    28   34   35 1 
    29   20   19 1 
    30   24   22 1 
    31   27   28 1 
    32   27   25 2 
    33    1    3 ar
    34    4    3 1 
    35    4    7 1 
    36    4    5 1 
    37    3    2 ar
    38    7   10 1 
    39    7    9 1 
    40   10   13 1 
    41   10   11 1 
    42   13   16 1 
    43   13   15 1 
    44   16   19 1 
    45   16   17 1 
    46   19   22 1 
    47   19   21 1 
    48   22   25 1 
    49   22   23 1 
    50   25   26 1 
