@<TRIPOS>MOLECULE
C:\Users\Praveer\PycharmProjects\pdb_to_mol2_converter\data\pdb\linp.pdb
   52    51     0     0     0
SMALL
GASTEIGER

@<TRIPOS>ATOM
      1 H1          0.0560   -0.0560    0.0370 H         1 LIN1        0.0000
      2 O1          1.0110   -0.0310    0.0080 O.3       1 LIN1        0.0000
      3 O2          0.5530    2.1690    0.0660 O.2       1 LIN1        0.0000
      4 C1          1.3930    1.2900    0.0230 C.2       1 LIN1        0.0000
      5 C2          2.9080    1.4630   -0.0210 C.3       1 LIN1        0.0000
      6 H2R         3.2850    0.9870   -0.9510 H         1 LIN1        0.0000
      7 H2S         3.3450    0.9330    0.8510 H         1 LIN1        0.0000
      8 C3          3.3210    2.9500    0.0100 C.3       1 LIN1        0.0000
      9 H3R         2.9340    3.4300    0.9380 H         1 LIN1        0.0000
     10 H3S         2.8680    3.4820   -0.8580 H         1 LIN1        0.0000
     11 C4          4.8450    3.1320   -0.0440 C.3       1 LIN1        0.0000
     12 H4R         5.2350    2.6540   -0.9710 H         1 LIN1        0.0000
     13 H4S         5.3080    2.6140    0.8260 H         1 LIN1        0.0000
     14 C5          5.2630    4.6090   -0.0300 C.3       1 LIN1        0.0000
     15 H5R         4.9150    5.0780    0.9180 H         1 LIN1        0.0000
     16 H5S         4.7600    5.1350   -0.8720 H         1 LIN1        0.0000
     17 C6          6.7810    4.8020   -0.1600 C.3       1 LIN1        0.0000
     18 H6R         7.1230    4.3410   -1.1140 H         1 LIN1        0.0000
     19 H6S         7.2940    4.2750    0.6750 H         1 LIN1        0.0000
     20 C7          7.1870    6.2840   -0.1470 C.3       1 LIN1        0.0000
     21 H7R         6.8830    6.7270    0.8290 H         1 LIN1        0.0000
     22 H7S         6.6210    6.8090   -0.9500 H         1 LIN1        0.0000
     23 C8          8.6980    6.4900   -0.3630 C.3       1 LIN1        0.0000
     24 H8R         8.9770    6.0300   -1.3380 H         1 LIN1        0.0000
     25 H8S         9.2390    5.9280    0.4320 H         1 LIN1        0.0000
     26 C9          9.0590    7.9550   -0.3660 C.2       1 LIN1        0.0000
     27 H9R         8.3420    8.6020   -0.8960 H         1 LIN1        0.0000
     28 C10        10.1270    8.5300    0.2200 C.2       1 LIN1        0.0000
     29 H10R       10.2360    9.6230    0.1360 H         1 LIN1        0.0000
     30 C11        11.2330    7.8320    0.9800 C.3       1 LIN1        0.0000
     31 H11R       11.2020    6.7350    0.8070 H         1 LIN1        0.0000
     32 H11S       11.0580    7.9740    2.0690 H         1 LIN1        0.0000
     33 C12        12.5930    8.3960    0.6330 C.2       1 LIN1        0.0000
     34 H12R       12.6270    9.4890    0.4990 H         1 LIN1        0.0000
     35 C13        13.7340    7.7010    0.4540 C.2       1 LIN1        0.0000
     36 H13R       14.6490    8.2540    0.1910 H         1 LIN1        0.0000
     37 C14        13.9230    6.2120    0.6020 C.3       1 LIN1        0.0000
     38 H14R       13.9670    5.7350   -0.4030 H         1 LIN1        0.0000
     39 H14S       13.0820    5.7360    1.1550 H         1 LIN1        0.0000
     40 C15        15.2280    5.8830    1.3500 C.3       1 LIN1        0.0000
     41 H15R       15.2010    6.3320    2.3690 H         1 LIN1        0.0000
     42 H15S       16.0940    6.3240    0.8070 H         1 LIN1        0.0000
     43 C16        15.4600    4.3710    1.4840 C.3       1 LIN1        0.0000
     44 H16R       15.4540    3.9100    0.4710 H         1 LIN1        0.0000
     45 H16S       14.6220    3.9230    2.0640 H         1 LIN1        0.0000
     46 C17        16.7880    4.0350    2.1760 C.3       1 LIN1        0.0000
     47 H17R       16.8020    4.5190    3.1790 H         1 LIN1        0.0000
     48 H17S       17.6220    4.4760    1.5810 H         1 LIN1        0.0000
     49 C18        17.0240    2.5310    2.3370 C.3       1 LIN1        0.0000
     50 H18R       17.0240    2.0300    1.3450 H         1 LIN1        0.0000
     51 H18S       16.2220    2.0780    2.9590 H         1 LIN1        0.0000
     52 H18T       18.0020    2.3390    2.8290 H         1 LIN1        0.0000
@<TRIPOS>BOND
     1   24   23 1 
     2   18   17 1 
     3   12   11 1 
     4    6    5 1 
     5   22   20 1 
     6   27   26 1 
     7   16   14 1 
     8   10    8 1 
     9   38   37 1 
    10   26   23 1 
    11   26   28 2 
    12   23   20 1 
    13   23   25 1 
    14   17   20 1 
    15   17   14 1 
    16   17   19 1 
    17   20   21 1 
    18   11   14 1 
    19   11    8 1 
    20   11   13 1 
    21   14   15 1 
    22    5    8 1 
    23    5    4 1 
    24    5    7 1 
    25    2    4 1 
    26    2    1 1 
    27    8    9 1 
    28    4    3 2 
    29   29   28 1 
    30   36   35 1 
    31   28   30 1 
    32   35   37 1 
    33   35   33 2 
    34   44   43 1 
    35   34   33 1 
    36   37   39 1 
    37   37   40 1 
    38   33   30 1 
    39   31   30 1 
    40   42   40 1 
    41   30   32 1 
    42   50   49 1 
    43   40   43 1 
    44   40   41 1 
    45   43   45 1 
    46   43   46 1 
    47   48   46 1 
    48   46   49 1 
    49   46   47 1 
    50   49   52 1 
    51   49   51 1 
