@<TRIPOS>MOLECULE
C:\Users\Praveer\PycharmProjects\pdb_to_mol2_converter\data\pdb\lmanol.pdb
   26    25     0     0     0
SMALL
GASTEIGER

@<TRIPOS>ATOM
      1 C1         -0.0290    0.0280    0.0820 C.3       1 LMA1        0.0000
      2 H11        -0.4160    0.4990    1.0130 H         1 LMA1        0.0000
      3 H12        -0.4450    0.6000   -0.7790 H         1 LMA1        0.0000
      4 O1         -0.5000   -1.3200   -0.0150 O.3       1 LMA1        0.0000
      5 HO1         0.1460   -1.8640    0.4500 H         1 LMA1        0.0000
      6 C2          1.4870    0.0420    0.0480 C.3       1 LMA1        0.0000
      7 H2          1.8290   -0.5790   -0.8180 H         1 LMA1        0.0000
      8 O2          1.9940   -0.5650    1.2470 O.3       1 LMA1        0.0000
      9 HO2         1.4680   -0.2240    1.9790 H         1 LMA1        0.0000
     10 C3          2.0620    1.4410   -0.1350 C.3       1 LMA1        0.0000
     11 H3          1.6270    2.0960    0.6550 H         1 LMA1        0.0000
     12 O3          1.6460    1.9460   -1.4130 O.3       1 LMA1        0.0000
     13 HO3         2.3800    1.7150   -1.9980 H         1 LMA1        0.0000
     14 C4          3.5890    1.4840   -0.0290 C.3       1 LMA1        0.0000
     15 H4          3.9220    0.9700    0.9030 H         1 LMA1        0.0000
     16 O4          4.1760    0.8020   -1.1530 O.3       1 LMA1        0.0000
     17 HO4         4.4250   -0.0750   -0.8360 H         1 LMA1        0.0000
     18 C5          4.1060    2.9150    0.0360 C.3       1 LMA1        0.0000
     19 H5          3.6620    3.5200   -0.7880 H         1 LMA1        0.0000
     20 O5          3.7170    3.4730    1.2960 O.3       1 LMA1        0.0000
     21 HO5         4.3970    4.1460    1.4480 H         1 LMA1        0.0000
     22 C6          5.6220    2.9940   -0.0440 C.3       1 LMA1        0.0000
     23 H61         5.9920    2.5520   -0.9960 H         1 LMA1        0.0000
     24 H62         6.0740    2.4190    0.7970 H         1 LMA1        0.0000
     25 O6          6.0600    4.3580    0.0380 O.3       1 LMA1        0.0000
     26 HO6         6.3500    4.6280   -0.8420 H         1 LMA1        0.0000
@<TRIPOS>BOND
     1   13   12 1 
     2   12   10 1 
     3   16   17 1 
     4   16   14 1 
     5   23   22 1 
     6   26   25 1 
     7    7    6 1 
     8   19   18 1 
     9    3    1 1 
    10   10   14 1 
    11   10    6 1 
    12   10   11 1 
    13   22   18 1 
    14   22   25 1 
    15   22   24 1 
    16   14   18 1 
    17   14   15 1 
    18    4    1 1 
    19    4    5 1 
    20   18   20 1 
    21    6    1 1 
    22    6    8 1 
    23    1    2 1 
    24    8    9 1 
    25   20   21 1 
