@<TRIPOS>MOLECULE
C:\Users\Praveer\PycharmProjects\pdb_to_mol2_converter\data\pdb\lmpg.pdb
   70    69     0     0     0
SMALL
GASTEIGER

@<TRIPOS>ATOM
      1 C13         0.0060   -0.0520    0.0210 C.3       1 LMP1        0.0000
      2 H13A       -0.3130    0.1340   -1.0290 H         1 LMP1        0.0000
      3 H13B       -0.3870   -1.0420    0.3380 H         1 LMP1        0.0000
      4 OC3        -0.5270    0.9840    0.8440 O.3       1 LMP1        0.0000
      5 HO3        -0.1200    1.7850    0.4720 H         1 LMP1        0.0000
      6 C12         1.5540   -0.0530    0.0800 C.3       1 LMP1        0.0000
      7 H12A        1.8680   -0.5150    1.0420 H         1 LMP1        0.0000
      8 OC2         2.0790   -0.8540   -0.9740 O.3       1 LMP1        0.0000
      9 HO2         2.0650   -0.2660   -1.7640 H         1 LMP1        0.0000
     10 C11         2.1560    1.3820    0.0160 C.3       1 LMP1        0.0000
     11 H11A        3.2410    1.3330   -0.2400 H         1 LMP1        0.0000
     12 H11B        2.0940    1.8040    1.0440 H         1 LMP1        0.0000
     13 P           1.7960    2.3430   -2.3890 P.3       1 LMP1        0.0000
     14 O13         0.8050    3.1900   -3.0800 O.2       1 LMP1        0.0000
     15 O14         2.0250    0.9720   -2.8980 O.3       1 LMP1        0.0000
     16 O12         1.4070    2.2420   -0.8540 O.3       1 LMP1        0.0000
     17 O11         3.1820    3.1110   -2.3100 O.3       1 LMP1        0.0000
     18 C1          3.2040    4.5040   -1.9660 C.3       1 LMP1        0.0000
     19 HA          4.0680    4.6890   -1.2890 H         1 LMP1        0.0000
     20 HB          2.2900    4.8360   -1.4180 H         1 LMP1        0.0000
     21 C2          3.3800    5.3770   -3.2320 C.3       1 LMP1        0.0000
     22 HS          2.5200    5.1900   -3.9160 H         1 LMP1        0.0000
     23 O21         4.5740    4.9340   -3.8650 O.3       1 LMP1        0.0000
     24 H21         4.5440    3.9840   -3.6770 H         1 LMP1        0.0000
     25 C3          3.4370    6.8990   -2.9070 C.3       1 LMP1        0.0000
     26 HX          4.2660    7.0470   -2.1810 H         1 LMP1        0.0000
     27 HY          2.4920    7.1950   -2.3960 H         1 LMP1        0.0000
     28 O31         3.7020    7.7150   -4.0690 O.3       1 LMP1        0.0000
     29 C31         2.6630    7.9250   -4.8620 C.2       1 LMP1        0.0000
     30 O32         1.5080    7.6350   -4.6230 O.2       1 LMP1        0.0000
     31 C32         3.1630    8.6140   -6.1330 C.3       1 LMP1        0.0000
     32 H2X         3.8710    7.9220   -6.6340 H         1 LMP1        0.0000
     33 H2Y         3.7190    9.5240   -5.8270 H         1 LMP1        0.0000
     34 C33         2.0230    8.9990   -7.1020 C.3       1 LMP1        0.0000
     35 H3X         1.2750    9.6290   -6.5690 H         1 LMP1        0.0000
     36 H3Y         1.5000    8.0800   -7.4520 H         1 LMP1        0.0000
     37 C34         2.5550    9.7800   -8.3100 C.3       1 LMP1        0.0000
     38 H4X         3.2680    9.1390   -8.8760 H         1 LMP1        0.0000
     39 H4Y         3.1200   10.6660   -7.9410 H         1 LMP1        0.0000
     40 C35         1.4520   10.2670   -9.2600 C.3       1 LMP1        0.0000
     41 H5X         0.7310   10.8920   -8.6870 H         1 LMP1        0.0000
     42 H5Y         0.8960    9.3930   -9.6660 H         1 LMP1        0.0000
     43 C36         2.0250   11.0950  -10.4170 C.3       1 LMP1        0.0000
     44 H6X         2.7220   10.4620  -11.0110 H         1 LMP1        0.0000
     45 H6Y         2.6170   11.9380   -9.9930 H         1 LMP1        0.0000
     46 C37         0.9490   11.6710  -11.3470 C.3       1 LMP1        0.0000
     47 H7X         0.2460   12.2920  -10.7480 H         1 LMP1        0.0000
     48 H7Y         0.3660   10.8380  -11.8000 H         1 LMP1        0.0000
     49 C38         1.5590   12.5340  -12.4590 C.3       1 LMP1        0.0000
     50 H8X         2.2470   11.9090  -13.0710 H         1 LMP1        0.0000
     51 H8Y         2.1650   13.3440  -11.9930 H         1 LMP1        0.0000
     52 C39         0.5060   13.1710  -13.3750 C.3       1 LMP1        0.0000
     53 H9X        -0.1890   13.7840  -12.7580 H         1 LMP1        0.0000
     54 H9Y        -0.0910   12.3690  -13.8630 H         1 LMP1        0.0000
     55 C310        1.1370   14.0620  -14.4540 C.3       1 LMP1        0.0000
     56 H10X        1.8240   13.4490  -15.0790 H         1 LMP1        0.0000
     57 H10Y        1.7470   14.8520  -13.9590 H         1 LMP1        0.0000
     58 C311        0.0950   14.7320  -15.3590 C.3       1 LMP1        0.0000
     59 H11X       -0.5960   15.3380  -14.7300 H         1 LMP1        0.0000
     60 H11Y       -0.5090   13.9460  -15.8650 H         1 LMP1        0.0000
     61 C312        0.7350   15.6380  -16.4190 C.3       1 LMP1        0.0000
     62 H12X        1.4240   15.0330  -17.0490 H         1 LMP1        0.0000
     63 H12Y        1.3430   16.4200  -15.9100 H         1 LMP1        0.0000
     64 C313       -0.3000   16.3220  -17.3220 C.3       1 LMP1        0.0000
     65 H13X       -0.9910   16.9210  -16.6860 H         1 LMP1        0.0000
     66 H13Y       -0.9080   15.5380  -17.8280 H         1 LMP1        0.0000
     67 C314        0.3280   17.2330  -18.3790 C.3       1 LMP1        0.0000
     68 H14X        1.0050   16.6520  -19.0420 H         1 LMP1        0.0000
     69 H14Y        0.9210   18.0390  -17.8950 H         1 LMP1        0.0000
     70 H14Z       -0.4590   17.7040  -19.0060 H         1 LMP1        0.0000
@<TRIPOS>BOND
     1   68   67 1 
     2   70   67 1 
     3   67   69 1 
     4   67   64 1 
     5   66   64 1 
     6   64   65 1 
     7   64   61 1 
     8   62   61 1 
     9   61   63 1 
    10   61   58 1 
    11   60   58 1 
    12   58   59 1 
    13   58   55 1 
    14   56   55 1 
    15   55   57 1 
    16   55   52 1 
    17   54   52 1 
    18   52   53 1 
    19   52   49 1 
    20   50   49 1 
    21   49   51 1 
    22   49   46 1 
    23   48   46 1 
    24   46   47 1 
    25   46   43 1 
    26   44   43 1 
    27   43   45 1 
    28   43   40 1 
    29   42   40 1 
    30   40   41 1 
    31   40   37 1 
    32   38   37 1 
    33   37   39 1 
    34   37   34 1 
    35   36   34 1 
    36   34   35 1 
    37   34   31 1 
    38   32   31 1 
    39   31   33 1 
    40   31   29 1 
    41   29   30 2 
    42   29   28 1 
    43   28   25 1 
    44   22   21 1 
    45   23   24 1 
    46   23   21 1 
    47   21   25 1 
    48   21   18 1 
    49   14   13 2 
    50   25   27 1 
    51   25   26 1 
    52   15   13 1 
    53   13   17 1 
    54   13   16 1 
    55   17   18 1 
    56   18   20 1 
    57   18   19 1 
    58    9    8 1 
    59    2    1 1 
    60    8    6 1 
    61   16   10 1 
    62   11   10 1 
    63   10    6 1 
    64   10   12 1 
    65    1    6 1 
    66    1    3 1 
    67    1    4 1 
    68    6    7 1 
    69    5    4 1 
