@<TRIPOS>MOLECULE
C:\Users\Praveer\PycharmProjects\pdb_to_mol2_converter\data\pdb\lnacl2.pdb
  238   237     0     0     0
SMALL
GASTEIGER

@<TRIPOS>ATOM
      1 C3          1.5400   -0.0150    0.0000 C.3       1 LNA1        0.0000
      2 HG31        1.8870   -0.5450    0.9170 H         1 LNA1        0.0000
      3 HG32        1.8820   -0.5950   -0.8910 H         1 LNA1        0.0000
      4 P3          3.6000    1.5320   -0.3050 P.3       1 LNA1        0.0000
      5 OP33        4.3660    0.4060    0.2690 O.3       1 LNA1        0.0000
      6 OP34        3.9900    2.9070    0.0760 O.2       1 LNA1        0.0000
      7 OP31        2.0490    1.3290   -0.0190 O.3       1 LNA1        0.0000
      8 OP32        3.6370    1.4240   -1.8890 O.3       1 LNA1        0.0000
      9 C31         3.0530    2.4890   -2.6480 C.3       1 LNA1        0.0000
     10 H31J        3.6870    3.4020   -2.5670 H         1 LNA1        0.0000
     11 H31K        2.0340    2.7500   -2.2760 H         1 LNA1        0.0000
     12 C2         -0.0090   -0.0310   -0.0080 C.3       1 LNA1        0.0000
     13 HG22       -0.3780    0.4650    0.9180 H         1 LNA1        0.0000
     14 OG12       -0.4150    0.7280   -1.1390 O.3       1 LNA1        0.0000
     15 HO12        0.2330    1.4440   -1.1170 H         1 LNA1        0.0000
     16 C1         -0.5780   -1.4770   -0.0630 C.3       1 LNA1        0.0000
     17 HG11       -0.0400   -2.0910    0.6970 H         1 LNA1        0.0000
     18 HG12       -0.3170   -1.8970   -1.0590 H         1 LNA1        0.0000
     19 P1         -2.6550   -1.7750    1.5370 P.3       1 LNA1        0.0000
     20 OP13       -2.2160   -0.7130    2.4690 O.3       1 LNA1        0.0000
     21 OP14       -4.1120   -1.9830    1.3770 O.2       1 LNA1        0.0000
     22 OP11       -2.0010   -1.5340    0.1120 O.3       1 LNA1        0.0000
     23 OP12       -1.9810   -3.1410    1.9930 O.3       1 LNA1        0.0000
     24 C11        -2.5490   -4.4170    1.6930 C.3       1 LNA1        0.0000
     25 H11J       -3.6600   -4.4170    1.7840 H         1 LNA1        0.0000
     26 H11K       -2.1570   -5.1400    2.4420 H         1 LNA1        0.0000
     27 C12        -2.1350   -4.9170    0.2850 C.3       1 LNA1        0.0000
     28 H12J       -1.0480   -4.6750    0.1830 H         1 LNA1        0.0000
     29 O12        -2.9520   -4.2360   -0.6770 O.3       1 LNA1        0.0000
     30 CA1        -2.3420   -3.8550   -1.7800 C.2       1 LNA1        0.0000
     31 OA1        -1.2200   -4.1800   -2.1310 O.2       1 LNA1        0.0000
     32 CA2        -3.2790   -2.9430   -2.5760 C.3       1 LNA1        0.0000
     33 H2A        -2.8370   -1.9240   -2.5530 H         1 LNA1        0.0000
     34 H2B        -4.2600   -2.8990   -2.0590 H         1 LNA1        0.0000
     35 C13        -2.3290   -6.4500    0.1150 C.3       1 LNA1        0.0000
     36 H13J       -3.4180   -6.6320   -0.0240 H         1 LNA1        0.0000
     37 H13K       -2.0350   -6.9730    1.0530 H         1 LNA1        0.0000
     38 O13        -1.6130   -6.9410   -1.0430 O.3       1 LNA1        0.0000
     39 CB1        -0.3210   -7.1740   -0.8090 C.2       1 LNA1        0.0000
     40 OB1         0.1820   -7.2900    0.2940 O.2       1 LNA1        0.0000
     41 CB2         0.4450   -7.2220   -2.1320 C.3       1 LNA1        0.0000
     42 H2D         0.2190   -6.2700   -2.6610 H         1 LNA1        0.0000
     43 H2E         0.0700   -8.0640   -2.7430 H         1 LNA1        0.0000
     44 C32         2.9560    2.0980   -4.1470 C.3       1 LNA1        0.0000
     45 H32J        2.5780    2.9770   -4.7210 H         1 LNA1        0.0000
     46 O32         2.0900    0.9620   -4.3280 O.3       1 LNA1        0.0000
     47 CC1         0.8010    1.2420   -4.2130 C.2       1 LNA1        0.0000
     48 OC1         0.3300    2.3600   -4.0780 O.2       1 LNA1        0.0000
     49 CC2         0.0170   -0.0600   -4.3730 C.3       1 LNA1        0.0000
     50 H2R         0.2190   -0.6710   -3.4660 H         1 LNA1        0.0000
     51 H2S         0.4190   -0.6040   -5.2500 H         1 LNA1        0.0000
     52 C33         4.3570    1.7620   -4.7240 C.3       1 LNA1        0.0000
     53 H33J        4.7800    0.9350   -4.1070 H         1 LNA1        0.0000
     54 H33K        5.0070    2.6580   -4.6050 H         1 LNA1        0.0000
     55 O33         4.2510    1.3660   -6.1100 O.3       1 LNA1        0.0000
     56 CD1         5.4140    1.0780   -6.6760 C.2       1 LNA1        0.0000
     57 OD1         6.5110    1.2600   -6.1820 O.2       1 LNA1        0.0000
     58 CD2         5.1460    0.4620   -8.0500 C.3       1 LNA1        0.0000
     59 H2X         4.3300    1.0360   -8.5340 H         1 LNA1        0.0000
     60 H2Y         4.7910   -0.5750   -7.8740 H         1 LNA1        0.0000
     61 CA3        -3.4580   -3.4310   -4.0280 C.3       1 LNA1        0.0000
     62 H3A        -3.7770   -4.4970   -4.0230 H         1 LNA1        0.0000
     63 H3B        -2.4800   -3.3680   -4.5560 H         1 LNA1        0.0000
     64 CA4        -4.4910   -2.6040   -4.8040 C.3       1 LNA1        0.0000
     65 H4A        -4.1790   -1.5350   -4.7720 H         1 LNA1        0.0000
     66 H4B        -5.4810   -2.6780   -4.3030 H         1 LNA1        0.0000
     67 CA5        -4.6230   -3.0350   -6.2730 C.3       1 LNA1        0.0000
     68 H5A        -3.6100   -3.0450   -6.7310 H         1 LNA1        0.0000
     69 H5B        -5.2310   -2.2750   -6.8130 H         1 LNA1        0.0000
     70 CA6        -5.2830   -4.4090   -6.4620 C.3       1 LNA1        0.0000
     71 H6A        -6.2830   -4.3820   -5.9740 H         1 LNA1        0.0000
     72 H6B        -4.6820   -5.1950   -5.9560 H         1 LNA1        0.0000
     73 CA7        -5.4660   -4.7920   -7.9400 C.3       1 LNA1        0.0000
     74 H7A        -5.9640   -3.9460   -8.4660 H         1 LNA1        0.0000
     75 H7B        -6.1490   -5.6700   -7.9930 H         1 LNA1        0.0000
     76 CA8        -4.1450   -5.1450   -8.6510 C.3       1 LNA1        0.0000
     77 H8A        -3.6930   -6.0250   -8.1410 H         1 LNA1        0.0000
     78 H8B        -3.4290   -4.3070   -8.5120 H         1 LNA1        0.0000
     79 CA9        -4.3740   -5.4540  -10.1110 C.2       1 LNA1        0.0000
     80 H9A        -4.8840   -6.4110  -10.2980 H         1 LNA1        0.0000
     81 CA10       -4.0390   -4.6870  -11.1690 C.2       1 LNA1        0.0000
     82 H10A       -4.2820   -5.0580  -12.1770 H         1 LNA1        0.0000
     83 CA11       -3.3540   -3.3410  -11.1420 C.3       1 LNA1        0.0000
     84 H11A       -2.3540   -3.4260  -11.6200 H         1 LNA1        0.0000
     85 H11B       -3.1440   -3.0180  -10.1030 H         1 LNA1        0.0000
     86 CA12       -4.1610   -2.2890  -11.8640 C.2       1 LNA1        0.0000
     87 H12A       -4.0670   -2.3090  -12.9610 H         1 LNA1        0.0000
     88 CA13       -4.9550   -1.3530  -11.3030 C.2       1 LNA1        0.0000
     89 H13A       -5.4900   -0.6550  -11.9660 H         1 LNA1        0.0000
     90 CA14       -5.2260   -1.1580   -9.8290 C.3       1 LNA1        0.0000
     91 H14A       -4.6400   -1.8710   -9.2090 H         1 LNA1        0.0000
     92 H14B       -6.2930   -1.4030   -9.6290 H         1 LNA1        0.0000
     93 CA15       -4.9330    0.2490   -9.3660 C.2       1 LNA1        0.0000
     94 H15A       -4.3600    0.8940  -10.0530 H         1 LNA1        0.0000
     95 CA16       -5.3210    0.7450   -8.1810 C.2       1 LNA1        0.0000
     96 H16A       -5.8780    0.1050   -7.4790 H         1 LNA1        0.0000
     97 CA17       -5.0350    2.1500   -7.7170 C.3       1 LNA1        0.0000
     98 H17A       -5.4460    2.8890   -8.4420 H         1 LNA1        0.0000
     99 H17B       -3.9370    2.3240   -7.6590 H         1 LNA1        0.0000
    100 CA18       -5.6510    2.4160   -6.3370 C.3       1 LNA1        0.0000
    101 H18A       -5.2460    1.7140   -5.5770 H         1 LNA1        0.0000
    102 H18B       -6.7570    2.3070   -6.3670 H         1 LNA1        0.0000
    103 H18C       -5.4160    3.4510   -6.0050 H         1 LNA1        0.0000
    104 CB3         1.9730   -7.3250   -1.9070 C.3       1 LNA1        0.0000
    105 H3D         2.2710   -8.3770   -1.7090 H         1 LNA1        0.0000
    106 H3E         2.2490   -6.7270   -1.0040 H         1 LNA1        0.0000
    107 CB4         2.8000   -6.7320   -3.0580 C.3       1 LNA1        0.0000
    108 H4D         3.8500   -6.6230   -2.7000 H         1 LNA1        0.0000
    109 H4E         2.4170   -5.7110   -3.2780 H         1 LNA1        0.0000
    110 CB5         2.8060   -7.5700   -4.3450 C.3       1 LNA1        0.0000
    111 H5D         1.7570   -7.7990   -4.6380 H         1 LNA1        0.0000
    112 H5E         3.3190   -8.5360   -4.1390 H         1 LNA1        0.0000
    113 CB6         3.5010   -6.8700   -5.5280 C.3       1 LNA1        0.0000
    114 H6D         2.8820   -6.0010   -5.8430 H         1 LNA1        0.0000
    115 H6E         3.5480   -7.5730   -6.3890 H         1 LNA1        0.0000
    116 CB7         4.9180   -6.3590   -5.2140 C.3       1 LNA1        0.0000
    117 H7D         5.5450   -7.2130   -4.8760 H         1 LNA1        0.0000
    118 H7E         4.8590   -5.6230   -4.3790 H         1 LNA1        0.0000
    119 CB8         5.5760   -5.6550   -6.4150 C.3       1 LNA1        0.0000
    120 H8D         4.8900   -4.8400   -6.7380 H         1 LNA1        0.0000
    121 H8E         5.6460   -6.3720   -7.2610 H         1 LNA1        0.0000
    122 CB9         6.9470   -5.1270   -6.0640 C.2       1 LNA1        0.0000
    123 H9D         7.6930   -5.9030   -5.8350 H         1 LNA1        0.0000
    124 CB10        7.3140   -3.8320   -5.9760 C.2       1 LNA1        0.0000
    125 H10D        8.3540   -3.5980   -5.6980 H         1 LNA1        0.0000
    126 CB11        6.4470   -2.6220   -6.2310 C.3       1 LNA1        0.0000
    127 H11D        5.6860   -2.8520   -7.0070 H         1 LNA1        0.0000
    128 H11E        7.0750   -1.8210   -6.6790 H         1 LNA1        0.0000
    129 CB12        5.8150   -2.0870   -4.9640 C.2       1 LNA1        0.0000
    130 H12D        6.5330   -1.8100   -4.1750 H         1 LNA1        0.0000
    131 CB13        4.5040   -1.8890   -4.7170 C.2       1 LNA1        0.0000
    132 H13D        4.2070   -1.4710   -3.7400 H         1 LNA1        0.0000
    133 CB14        3.3480   -2.1770   -5.6420 C.3       1 LNA1        0.0000
    134 H14D        3.6850   -2.6530   -6.5860 H         1 LNA1        0.0000
    135 H14E        2.8360   -1.2270   -5.9170 H         1 LNA1        0.0000
    136 CB15        2.3190   -3.1190   -4.9930 C.3       1 LNA1        0.0000
    137 H15D        1.8470   -2.6190   -4.1180 H         1 LNA1        0.0000
    138 H15E        2.8410   -4.0290   -4.6230 H         1 LNA1        0.0000
    139 CB16        1.2290   -3.5530   -5.9830 C.3       1 LNA1        0.0000
    140 H16D        1.7100   -4.0640   -6.8430 H         1 LNA1        0.0000
    141 H16E        0.7120   -2.6500   -6.3710 H         1 LNA1        0.0000
    142 CB17        0.1920   -4.4980   -5.3670 C.3       1 LNA1        0.0000
    143 H17D       -0.2960   -3.9770   -4.5120 H         1 LNA1        0.0000
    144 H17E        0.7140   -5.3890   -4.9510 H         1 LNA1        0.0000
    145 CB18       -0.8740   -4.9580   -6.3660 C.3       1 LNA1        0.0000
    146 H18D       -0.4080   -5.5210   -7.2020 H         1 LNA1        0.0000
    147 H18E       -1.4120   -4.0830   -6.7880 H         1 LNA1        0.0000
    148 H18F       -1.6160   -5.6170   -5.8640 H         1 LNA1        0.0000
    149 CC3        -1.5100    0.1420   -4.5070 C.3       1 LNA1        0.0000
    150 H3R        -1.8970    0.6330   -3.5840 H         1 LNA1        0.0000
    151 H3S        -1.9770   -0.8670   -4.5560 H         1 LNA1        0.0000
    152 CC4        -1.9640    0.9490   -5.7390 C.3       1 LNA1        0.0000
    153 H4R        -1.7000    2.0190   -5.5810 H         1 LNA1        0.0000
    154 H4S        -3.0730    0.8920   -5.7990 H         1 LNA1        0.0000
    155 CC5        -1.3720    0.4970   -7.0860 C.3       1 LNA1        0.0000
    156 H5R        -0.2710    0.6500   -7.0630 H         1 LNA1        0.0000
    157 H5S        -1.7820    1.1470   -7.8900 H         1 LNA1        0.0000
    158 CC6        -1.6890   -0.9640   -7.4290 C.3       1 LNA1        0.0000
    159 H6R        -2.7930   -1.1010   -7.3870 H         1 LNA1        0.0000
    160 H6S        -1.2420   -1.6240   -6.6540 H         1 LNA1        0.0000
    161 CC7        -1.1930   -1.4160   -8.8140 C.3       1 LNA1        0.0000
    162 H7R        -1.8330   -0.9460   -9.5940 H         1 LNA1        0.0000
    163 H7S        -1.3370   -2.5200   -8.8750 H         1 LNA1        0.0000
    164 CC8         0.2830   -1.0740   -9.0970 C.3       1 LNA1        0.0000
    165 H8R         0.8790   -1.3750   -8.2090 H         1 LNA1        0.0000
    166 H8S         0.3810    0.0300   -9.1890 H         1 LNA1        0.0000
    167 CC9         0.7670   -1.7350  -10.3650 C.2       1 LNA1        0.0000
    168 H9R         0.1170   -1.5680  -11.2380 H         1 LNA1        0.0000
    169 CC10        1.8610   -2.5060  -10.5170 C.2       1 LNA1        0.0000
    170 H10R        2.0690   -2.9240  -11.5150 H         1 LNA1        0.0000
    171 CC11        2.8840   -2.8700   -9.4700 C.3       1 LNA1        0.0000
    172 H11R        2.6240   -2.4390   -8.4820 H         1 LNA1        0.0000
    173 H11S        3.8530   -2.4020   -9.7390 H         1 LNA1        0.0000
    174 CC12        3.0110   -4.3670   -9.3290 C.2       1 LNA1        0.0000
    175 H12R        2.1110   -4.8590   -8.9270 H         1 LNA1        0.0000
    176 CC13        4.0780   -5.1360   -9.6240 C.2       1 LNA1        0.0000
    177 H13R        4.0020   -6.2210   -9.4580 H         1 LNA1        0.0000
    178 CC14        5.4020   -4.6860  -10.1900 C.3       1 LNA1        0.0000
    179 H14R        6.1960   -4.8170   -9.4200 H         1 LNA1        0.0000
    180 H14S        5.4000   -3.6100  -10.4650 H         1 LNA1        0.0000
    181 CC15        5.8100   -5.4880  -11.4410 C.3       1 LNA1        0.0000
    182 H15R        5.8780   -6.5710  -11.1920 H         1 LNA1        0.0000
    183 H15S        6.8280   -5.1560  -11.7500 H         1 LNA1        0.0000
    184 CC16        4.8630   -5.3020  -12.6380 C.3       1 LNA1        0.0000
    185 H16R        4.7710   -4.2170  -12.8660 H         1 LNA1        0.0000
    186 H16S        3.8490   -5.6770  -12.3750 H         1 LNA1        0.0000
    187 CC17        5.3560   -6.0350  -13.8930 C.3       1 LNA1        0.0000
    188 H17R        5.4900   -7.1130  -13.6500 H         1 LNA1        0.0000
    189 H17S        6.3550   -5.6290  -14.1730 H         1 LNA1        0.0000
    190 CC18        4.4080   -5.9060  -15.0880 C.3       1 LNA1        0.0000
    191 H18R        4.2330   -4.8370  -15.3350 H         1 LNA1        0.0000
    192 H18S        3.4270   -6.3740  -14.8580 H         1 LNA1        0.0000
    193 H18T        4.8340   -6.4080  -15.9830 H         1 LNA1        0.0000
    194 CD3         6.3980    0.4310   -8.9590 C.3       1 LNA1        0.0000
    195 H3X         7.2610    0.0150   -8.3870 H         1 LNA1        0.0000
    196 H3Y         6.6660    1.4670   -9.2620 H         1 LNA1        0.0000
    197 CD4         6.2070   -0.4390  -10.2130 C.3       1 LNA1        0.0000
    198 H4X         6.0300   -1.4880   -9.8870 H         1 LNA1        0.0000
    199 H4Y         7.1460   -0.4280  -10.8100 H         1 LNA1        0.0000
    200 CD5         5.0400    0.0050  -11.1090 C.3       1 LNA1        0.0000
    201 H5X         5.2190    1.0410  -11.4710 H         1 LNA1        0.0000
    202 H5Y         4.1010    0.0120  -10.5100 H         1 LNA1        0.0000
    203 CD6         4.8190   -0.9290  -12.3090 C.3       1 LNA1        0.0000
    204 H6X         4.7020   -1.9670  -11.9230 H         1 LNA1        0.0000
    205 H6Y         5.7090   -0.9140  -12.9730 H         1 LNA1        0.0000
    206 CD7         3.5530   -0.5690  -13.1030 C.3       1 LNA1        0.0000
    207 H7X         3.7030    0.3860  -13.6530 H         1 LNA1        0.0000
    208 H7Y         2.7330   -0.3970  -12.3690 H         1 LNA1        0.0000
    209 CD8         3.0860   -1.6840  -14.0610 C.3       1 LNA1        0.0000
    210 H8X         2.0410   -1.4460  -14.3570 H         1 LNA1        0.0000
    211 H8Y         3.0450   -2.6400  -13.4950 H         1 LNA1        0.0000
    212 CD9         3.9800   -1.8440  -15.2650 C.2       1 LNA1        0.0000
    213 H9X         5.0570   -1.7500  -15.0560 H         1 LNA1        0.0000
    214 CD10        3.5850   -2.0870  -16.5310 C.2       1 LNA1        0.0000
    215 H10X        4.3570   -2.1800  -17.3100 H         1 LNA1        0.0000
    216 CD11        2.1680   -2.2670  -17.0250 C.3       1 LNA1        0.0000
    217 H11X        2.0300   -1.6770  -17.9580 H         1 LNA1        0.0000
    218 H11Y        1.4330   -1.8370  -16.3120 H         1 LNA1        0.0000
    219 CD12        1.8600   -3.7190  -17.3070 C.2       1 LNA1        0.0000
    220 H12X        2.3480   -4.1180  -18.2100 H         1 LNA1        0.0000
    221 CD13        1.0680   -4.5460  -16.5950 C.2       1 LNA1        0.0000
    222 H13X        0.9570   -5.5860  -16.9400 H         1 LNA1        0.0000
    223 CD14        0.3070   -4.2340  -15.3280 C.3       1 LNA1        0.0000
    224 H14X       -0.7750   -4.4410  -15.4820 H         1 LNA1        0.0000
    225 H14Y        0.3910   -3.1650  -15.0340 H         1 LNA1        0.0000
    226 CD15        0.8050   -5.0920  -14.1490 C.3       1 LNA1        0.0000
    227 H15X        1.8590   -4.8180  -13.9170 H         1 LNA1        0.0000
    228 H15Y        0.7880   -6.1690  -14.4320 H         1 LNA1        0.0000
    229 CD16       -0.0430   -4.9180  -12.8800 C.3       1 LNA1        0.0000
    230 H16X       -1.1000   -5.1860  -13.1040 H         1 LNA1        0.0000
    231 H16Y       -0.0230   -3.8500  -12.5700 H         1 LNA1        0.0000
    232 CD17        0.4590   -5.7910  -11.7220 C.3       1 LNA1        0.0000
    233 H17X        1.5220   -5.5290  -11.5170 H         1 LNA1        0.0000
    234 H17Y        0.4380   -6.8580  -12.0430 H         1 LNA1        0.0000
    235 CD18       -0.3560   -5.6380  -10.4350 C.3       1 LNA1        0.0000
    236 H18X       -1.4120   -5.9390  -10.6060 H         1 LNA1        0.0000
    237 H18Y       -0.3460   -4.5820  -10.0890 H         1 LNA1        0.0000
    238 H18Z        0.0640   -6.2750   -9.6280 H         1 LNA1        0.0000
@<TRIPOS>BOND
     1  220  219 1 
     2  217  216 1 
     3  215  214 1 
     4  219  216 1 
     5  219  221 2 
     6  216  214 1 
     7  216  218 1 
     8  222  221 1 
     9  221  223 1 
    10  214  212 2 
    11  193  190 1 
    12  224  223 1 
    13  191  190 1 
    14  223  225 1 
    15  223  226 1 
    16  212  213 1 
    17  212  209 1 
    18  190  192 1 
    19  190  187 1 
    20  228  226 1 
    21  210  209 1 
    22  189  187 1 
    23  226  227 1 
    24  226  229 1 
    25  209  211 1 
    26  209  206 1 
    27  187  188 1 
    28  187  184 1 
    29  207  206 1 
    30  230  229 1 
    31  206  208 1 
    32  206  203 1 
    33  205  203 1 
    34   87   86 1 
    35  229  231 1 
    36  229  232 1 
    37  185  184 1 
    38  184  186 1 
    39  184  181 1 
    40  203  204 1 
    41  203  200 1 
    42   82   81 1 
    43  234  232 1 
    44   89   88 1 
    45   86   88 2 
    46   86   83 1 
    47  183  181 1 
    48  232  233 1 
    49  232  235 1 
    50   84   83 1 
    51  170  169 1 
    52  201  200 1 
    53  181  182 1 
    54  181  178 1 
    55   88   90 1 
    56  168  167 1 
    57   81   83 1 
    58   81   79 2 
    59   83   85 1 
    60  200  202 1 
    61  200  197 1 
    62  199  197 1 
    63  236  235 1 
    64  169  167 2 
    65  169  171 1 
    66  180  178 1 
    67  235  237 1 
    68  235  238 1 
    69  167  164 1 
    70   80   79 1 
    71  197  198 1 
    72  197  194 1 
    73  178  176 1 
    74  178  179 1 
    75   79   76 1 
    76   94   93 1 
    77   90   92 1 
    78   90   93 1 
    79   90   91 1 
    80  173  171 1 
    81  176  177 1 
    82  176  174 2 
    83  162  161 1 
    84  171  174 1 
    85  171  172 1 
    86   93   95 2 
    87  174  175 1 
    88  196  194 1 
    89  166  164 1 
    90  164  161 1 
    91  164  165 1 
    92  194  195 1 
    93  194   58 1 
    94  163  161 1 
    95  161  158 1 
    96   76   78 1 
    97   76   77 1 
    98   76   73 1 
    99   59   58 1 
   100   74   73 1 
   101   98   97 1 
   102   95   97 1 
   103   95   96 1 
   104   58   60 1 
   105   58   56 1 
   106   75   73 1 
   107   73   70 1 
   108  157  155 1 
   109   97   99 1 
   110   97  100 1 
   111  158  159 1 
   112  158  155 1 
   113  158  160 1 
   114  121  119 1 
   115  146  145 1 
   116  155  156 1 
   117  155  152 1 
   118  127  126 1 
   119  140  139 1 
   120   69   67 1 
   121  147  145 1 
   122  120  119 1 
   123   68   67 1 
   124  128  126 1 
   125   56   57 2 
   126   56   55 1 
   127  134  133 1 
   128   70   67 1 
   129   70   71 1 
   130   70   72 1 
   131  119  122 1 
   132  119  116 1 
   133  115  113 1 
   134  141  139 1 
   135  102  100 1 
   136  145  148 1 
   137  145  142 1 
   138  100  103 1 
   139  100  101 1 
   140   67   64 1 
   141  126  124 1 
   142  126  129 1 
   143   55   52 1 
   144  122  124 2 
   145  122  123 1 
   146  139  142 1 
   147  139  136 1 
   148  124  125 1 
   149  135  133 1 
   150  114  113 1 
   151  154  152 1 
   152  152  153 1 
   153  152  149 1 
   154  133  136 1 
   155  133  131 1 
   156  113  116 1 
   157  113  110 1 
   158  142  144 1 
   159  142  143 1 
   160   51   49 1 
   161  116  117 1 
   162  116  118 1 
   163  136  138 1 
   164  136  137 1 
   165  129  131 2 
   166  129  130 1 
   167   64   65 1 
   168   64   66 1 
   169   64   61 1 
   170   52   54 1 
   171   52   44 1 
   172   52   53 1 
   173   45   44 1 
   174  131  132 1 
   175  111  110 1 
   176  151  149 1 
   177   63   61 1 
   178  149   49 1 
   179  149  150 1 
   180   49   47 1 
   181   49   50 1 
   182  110  112 1 
   183  110  107 1 
   184   46   47 1 
   185   46   44 1 
   186   47   48 2 
   187   44    9 1 
   188   61   62 1 
   189   61   32 1 
   190  109  107 1 
   191  107  108 1 
   192  107  104 1 
   193   43   41 1 
   194   42   41 1 
   195    9   10 1 
   196    9   11 1 
   197    9    8 1 
   198   32   33 1 
   199   32   34 1 
   200   32   30 1 
   201   41  104 1 
   202   41   39 1 
   203   31   30 2 
   204  104  105 1 
   205  104  106 1 
   206    8    4 1 
   207   30   29 1 
   208   14   15 1 
   209   14   12 1 
   210   18   16 1 
   211   38   39 1 
   212   38   35 1 
   213    3    1 1 
   214   39   40 2 
   215   29   27 1 
   216    4    7 1 
   217    4    6 2 
   218    4    5 1 
   219   16   12 1 
   220   16   22 1 
   221   16   17 1 
   222   36   35 1 
   223    7    1 1 
   224   12    1 1 
   225   12   13 1 
   226    1    2 1 
   227   22   19 1 
   228   35   27 1 
   229   35   37 1 
   230   28   27 1 
   231   27   24 1 
   232   21   19 2 
   233   19   23 1 
   234   19   20 1 
   235   24   25 1 
   236   24   23 1 
   237   24   26 1 
