@<TRIPOS>MOLECULE
C:\Users\Praveer\PycharmProjects\pdb_to_mol2_converter\data\pdb\lnacl1.pdb
  239   238     0     0     0
SMALL
GASTEIGER

@<TRIPOS>ATOM
      1 C3          1.5630    0.0050    0.0290 C.3       1 LNA1        0.0000
      2 HG31        1.9110   -0.5940    0.9050 H         1 LNA1        0.0000
      3 HG32        1.9230   -0.5120   -0.8870 H         1 LNA1        0.0000
      4 P3          3.0010    1.8980    1.1760 P.3       1 LNA1        0.0000
      5 OP33        2.1390    2.2180    2.3390 O.3       1 LNA1        0.0000
      6 OP34        3.8760    2.9560    0.6440 O.2       1 LNA1        0.0000
      7 OP31        2.0770    1.3360    0.0190 O.3       1 LNA1        0.0000
      8 OP32        3.8800    0.6370    1.5530 O.3       1 LNA1        0.0000
      9 C31         4.8680    0.1730    0.6320 C.3       1 LNA1        0.0000
     10 H31J        5.5910    0.9840    0.3790 H         1 LNA1        0.0000
     11 H31K        4.3940   -0.1670   -0.3170 H         1 LNA1        0.0000
     12 C2          0.0150   -0.0130    0.0390 C.3       1 LNA1        0.0000
     13 HG22       -0.3590    0.5300   -0.8590 H         1 LNA1        0.0000
     14 OG12       -0.3960   -1.3800   -0.0440 O.3       1 LNA1        0.0000
     15 HO12        0.0730   -1.7420   -0.8010 H         1 LNA1        0.0000
     16 C1         -0.6060    0.6660    1.2950 C.3       1 LNA1        0.0000
     17 HG11        0.1260    0.5010    2.1250 H         1 LNA1        0.0000
     18 HG12       -1.5490    0.1290    1.5490 H         1 LNA1        0.0000
     19 P1         -1.1130    2.9480    2.3190 P.3       1 LNA1        0.0000
     20 OP13        0.1250    3.8880    2.5210 O.3       1 LNA1        0.0000
     21 HP13        0.9480    3.3630    2.4390 H         1 LNA1        0.0000
     22 OP14       -2.3370    3.7630    2.2930 O.2       1 LNA1        0.0000
     23 OP11       -0.9080    2.0460    1.0460 O.3       1 LNA1        0.0000
     24 OP12       -1.1370    1.9440    3.5250 O.3       1 LNA1        0.0000
     25 C11        -0.9740    2.4640    4.8430 C.3       1 LNA1        0.0000
     26 H11J       -1.6470    1.8830    5.5120 H         1 LNA1        0.0000
     27 H11K       -1.2690    3.5350    4.9510 H         1 LNA1        0.0000
     28 C12         0.4840    2.2700    5.3720 C.3       1 LNA1        0.0000
     29 H12J        1.1210    2.9940    4.8100 H         1 LNA1        0.0000
     30 O12         0.9210    0.9250    5.0840 O.3       1 LNA1        0.0000
     31 CA1         2.2450    0.7680    5.1390 C.2       1 LNA1        0.0000
     32 OA1         3.0370    1.6080    5.5400 O.2       1 LNA1        0.0000
     33 CA2         2.6080   -0.6180    4.6130 C.3       1 LNA1        0.0000
     34 H2A         2.8180   -0.5040    3.5280 H         1 LNA1        0.0000
     35 H2B         1.7380   -1.2930    4.7360 H         1 LNA1        0.0000
     36 C13         0.5800    2.6160    6.8900 C.3       1 LNA1        0.0000
     37 H13J        0.4360    3.7170    6.9770 H         1 LNA1        0.0000
     38 H13K        1.5970    2.4070    7.2900 H         1 LNA1        0.0000
     39 O13        -0.4590    1.9660    7.6500 O.3       1 LNA1        0.0000
     40 CB1        -0.1680    0.7580    8.1240 C.2       1 LNA1        0.0000
     41 OB1         0.9060    0.1920    8.0390 O.2       1 LNA1        0.0000
     42 CB2        -1.4000    0.2030    8.8330 C.3       1 LNA1        0.0000
     43 H2D        -2.3110    0.6080    8.3450 H         1 LNA1        0.0000
     44 H2E        -1.3610    0.5610    9.8830 H         1 LNA1        0.0000
     45 C32         5.6600   -1.0050    1.2620 C.3       1 LNA1        0.0000
     46 H32J        6.3430   -1.4380    0.4960 H         1 LNA1        0.0000
     47 O32         4.7730   -2.0160    1.7760 O.3       1 LNA1        0.0000
     48 CC1         4.0810   -2.6790    0.8750 C.2       1 LNA1        0.0000
     49 OC1         4.2280   -2.6370   -0.3330 O.2       1 LNA1        0.0000
     50 CC2         3.0490   -3.5500    1.5920 C.3       1 LNA1        0.0000
     51 H2R         2.4720   -4.1020    0.8240 H         1 LNA1        0.0000
     52 H2S         2.3620   -2.8590    2.1250 H         1 LNA1        0.0000
     53 C33         6.5360   -0.4940    2.4370 C.3       1 LNA1        0.0000
     54 H33J        5.8300   -0.0140    3.1590 H         1 LNA1        0.0000
     55 H33K        7.2380    0.2840    2.0660 H         1 LNA1        0.0000
     56 O33         7.2650   -1.5920    3.0280 O.3       1 LNA1        0.0000
     57 CD1         7.5900   -1.4130    4.2990 C.2       1 LNA1        0.0000
     58 OD1         7.5250   -0.3600    4.9140 O.2       1 LNA1        0.0000
     59 CD2         8.0130   -2.7450    4.9080 C.3       1 LNA1        0.0000
     60 H2X         8.1600   -2.5690    5.9940 H         1 LNA1        0.0000
     61 H2Y         8.9780   -3.0510    4.4580 H         1 LNA1        0.0000
     62 CA3         3.8500   -1.2090    5.3130 C.3       1 LNA1        0.0000
     63 H3A         4.6950   -0.4830    5.2750 H         1 LNA1        0.0000
     64 H3B         4.1670   -2.1110    4.7470 H         1 LNA1        0.0000
     65 CA4         3.5790   -1.6090    6.7700 C.3       1 LNA1        0.0000
     66 H4A         2.6520   -2.2200    6.8300 H         1 LNA1        0.0000
     67 H4B         3.4100   -0.6800    7.3640 H         1 LNA1        0.0000
     68 CA5         4.7410   -2.3960    7.3890 C.3       1 LNA1        0.0000
     69 H5A         5.6870   -1.8700    7.1310 H         1 LNA1        0.0000
     70 H5B         4.7770   -3.4120    6.9400 H         1 LNA1        0.0000
     71 CA6         4.6330   -2.5160    8.9160 C.3       1 LNA1        0.0000
     72 H6A         3.6560   -2.9790    9.1750 H         1 LNA1        0.0000
     73 H6B         4.6380   -1.4920    9.3540 H         1 LNA1        0.0000
     74 CA7         5.7590   -3.3470    9.5590 C.3       1 LNA1        0.0000
     75 H7A         5.6400   -4.4080    9.2400 H         1 LNA1        0.0000
     76 H7B         5.6380   -3.3120   10.6650 H         1 LNA1        0.0000
     77 CA8         7.1930   -2.8960    9.2100 C.3       1 LNA1        0.0000
     78 H8A         7.3590   -3.0470    8.1220 H         1 LNA1        0.0000
     79 H8B         7.8990   -3.5820    9.7260 H         1 LNA1        0.0000
     80 CA9         7.4540   -1.4510    9.5620 C.2       1 LNA1        0.0000
     81 H9A         6.9980   -0.7270    8.8670 H         1 LNA1        0.0000
     82 CA10        8.1540   -0.9770   10.6100 C.2       1 LNA1        0.0000
     83 H10A        8.2510    0.1150   10.7170 H         1 LNA1        0.0000
     84 CA11        8.8490   -1.7780   11.6840 C.3       1 LNA1        0.0000
     85 H11A        9.9290   -1.5170   11.6800 H         1 LNA1        0.0000
     86 H11B        8.8060   -2.8650   11.4620 H         1 LNA1        0.0000
     87 CA12        8.2830   -1.4940   13.0550 C.2       1 LNA1        0.0000
     88 H12A        7.9880   -0.4490   13.2420 H         1 LNA1        0.0000
     89 CA13        8.0970   -2.4010   14.0340 C.2       1 LNA1        0.0000
     90 H13A        7.6600   -2.0720   14.9870 H         1 LNA1        0.0000
     91 CA14        8.4080   -3.8780   13.9580 C.3       1 LNA1        0.0000
     92 H14A        8.6980   -4.2480   14.9680 H         1 LNA1        0.0000
     93 H14B        9.2970   -4.0550   13.3170 H         1 LNA1        0.0000
     94 CA15        7.2380   -4.6550   13.4120 C.2       1 LNA1        0.0000
     95 H15A        7.1880   -4.7350   12.3140 H         1 LNA1        0.0000
     96 CA16        6.2540   -5.1650   14.1770 C.2       1 LNA1        0.0000
     97 H16A        6.3000   -5.0040   15.2630 H         1 LNA1        0.0000
     98 CA17        5.0090   -5.8720   13.6960 C.3       1 LNA1        0.0000
     99 H17A        4.1520   -5.5980   14.3530 H         1 LNA1        0.0000
    100 H17B        5.1490   -6.9670   13.8050 H         1 LNA1        0.0000
    101 CA18        4.5880   -5.5660   12.2510 C.3       1 LNA1        0.0000
    102 H18A        5.3850   -5.8360   11.5290 H         1 LNA1        0.0000
    103 H18B        4.3580   -4.4850   12.1400 H         1 LNA1        0.0000
    104 H18C        3.6750   -6.1340   11.9790 H         1 LNA1        0.0000
    105 CB3        -1.4350   -1.3400    8.7970 C.3       1 LNA1        0.0000
    106 H3D        -0.5080   -1.7490    9.2600 H         1 LNA1        0.0000
    107 H3E        -1.4490   -1.6820    7.7360 H         1 LNA1        0.0000
    108 CB4        -2.6590   -1.9340    9.5150 C.3       1 LNA1        0.0000
    109 H4D        -2.6210   -3.0420    9.4180 H         1 LNA1        0.0000
    110 H4E        -3.5840   -1.5920    8.9990 H         1 LNA1        0.0000
    111 CB5        -2.7700   -1.5770   11.0100 C.3       1 LNA1        0.0000
    112 H5D        -3.6200   -2.1470   11.4470 H         1 LNA1        0.0000
    113 H5E        -3.0140   -0.4950   11.1060 H         1 LNA1        0.0000
    114 CB6        -1.5050   -1.8650   11.8390 C.3       1 LNA1        0.0000
    115 H6D        -1.7010   -1.5970   12.9010 H         1 LNA1        0.0000
    116 H6E        -0.6840   -1.2050   11.4820 H         1 LNA1        0.0000
    117 CB7        -1.0430   -3.3300   11.7770 C.3       1 LNA1        0.0000
    118 H7D        -0.8550   -3.6210   10.7200 H         1 LNA1        0.0000
    119 H7E        -1.8670   -3.9760   12.1550 H         1 LNA1        0.0000
    120 CB8         0.2270   -3.6100   12.6060 C.3       1 LNA1        0.0000
    121 H8D         0.4280   -4.7040   12.5660 H         1 LNA1        0.0000
    122 H8E         0.0060   -3.3520   13.6660 H         1 LNA1        0.0000
    123 CB9         1.4260   -2.8550   12.0850 C.2       1 LNA1        0.0000
    124 H9D         1.4050   -2.6400   11.0050 H         1 LNA1        0.0000
    125 CB10        2.4580   -2.3960   12.8180 C.2       1 LNA1        0.0000
    126 H10D        3.2690   -1.8510   12.3090 H         1 LNA1        0.0000
    127 CB11        2.6640   -2.5980   14.2990 C.3       1 LNA1        0.0000
    128 H11D        3.6370   -3.1140   14.4520 H         1 LNA1        0.0000
    129 H11E        1.9060   -3.2900   14.7250 H         1 LNA1        0.0000
    130 CB12        2.6090   -1.2950   15.0600 C.2       1 LNA1        0.0000
    131 H12D        1.6120   -0.8290   15.1050 H         1 LNA1        0.0000
    132 CB13        3.6370   -0.6930   15.6880 C.2       1 LNA1        0.0000
    133 H13D        3.4540    0.2490   16.2280 H         1 LNA1        0.0000
    134 CB14        5.0630   -1.1850   15.7250 C.3       1 LNA1        0.0000
    135 H14D        5.7630   -0.3210   15.7430 H         1 LNA1        0.0000
    136 H14E        5.3020   -1.7600   14.8010 H         1 LNA1        0.0000
    137 CB15        5.3600   -2.0900   16.9370 C.3       1 LNA1        0.0000
    138 H15D        6.3930   -2.4910   16.8370 H         1 LNA1        0.0000
    139 H15E        4.6660   -2.9600   16.9310 H         1 LNA1        0.0000
    140 CB16        5.2540   -1.3660   18.2880 C.3       1 LNA1        0.0000
    141 H16D        4.2160   -0.9890   18.4230 H         1 LNA1        0.0000
    142 H16E        5.9380   -0.4880   18.2880 H         1 LNA1        0.0000
    143 CB17        5.6050   -2.2720   19.4750 C.3       1 LNA1        0.0000
    144 H17D        6.6430   -2.6540   19.3420 H         1 LNA1        0.0000
    145 H17E        4.9210   -3.1520   19.4680 H         1 LNA1        0.0000
    146 CB18        5.4980   -1.5630   20.8270 C.3       1 LNA1        0.0000
    147 H18D        4.4650   -1.1870   20.9890 H         1 LNA1        0.0000
    148 H18E        6.1950   -0.6980   20.8670 H         1 LNA1        0.0000
    149 H18F        5.7530   -2.2580   21.6560 H         1 LNA1        0.0000
    150 CC3         3.7080   -4.5350    2.5860 C.3       1 LNA1        0.0000
    151 H3R         4.3580   -3.9620    3.2880 H         1 LNA1        0.0000
    152 H3S         4.3590   -5.2490    2.0340 H         1 LNA1        0.0000
    153 CC4         2.6990   -5.3220    3.4350 C.3       1 LNA1        0.0000
    154 H4R         3.2710   -5.9510    4.1550 H         1 LNA1        0.0000
    155 H4S         2.1050   -6.0070    2.7910 H         1 LNA1        0.0000
    156 CC5         1.7470   -4.4110    4.2210 C.3       1 LNA1        0.0000
    157 H5R         0.9120   -4.0860    3.5610 H         1 LNA1        0.0000
    158 H5S         2.3040   -3.5010    4.5360 H         1 LNA1        0.0000
    159 CC6         1.1920   -5.0710    5.4860 C.3       1 LNA1        0.0000
    160 H6R         2.0480   -5.2840    6.1650 H         1 LNA1        0.0000
    161 H6S         0.7140   -6.0420    5.2290 H         1 LNA1        0.0000
    162 CC7         0.1750   -4.1790    6.2140 C.3       1 LNA1        0.0000
    163 H7R        -0.7610   -4.1530    5.6100 H         1 LNA1        0.0000
    164 H7S         0.5600   -3.1360    6.2600 H         1 LNA1        0.0000
    165 CC8        -0.1570   -4.6720    7.6360 C.3       1 LNA1        0.0000
    166 H8R        -0.4700   -5.7370    7.5650 H         1 LNA1        0.0000
    167 H8S        -1.0360   -4.1020    8.0040 H         1 LNA1        0.0000
    168 CC9         1.0040   -4.4690    8.5790 C.2       1 LNA1        0.0000
    169 H9R         1.4940   -3.4870    8.4840 H         1 LNA1        0.0000
    170 CC10        1.5000   -5.3490    9.4700 C.2       1 LNA1        0.0000
    171 H10R        2.3630   -5.0400   10.0820 H         1 LNA1        0.0000
    172 CC11        0.9860   -6.7400    9.7630 C.3       1 LNA1        0.0000
    173 H11R        0.2050   -7.0470    9.0350 H         1 LNA1        0.0000
    174 H11S        0.4730   -6.7330   10.7490 H         1 LNA1        0.0000
    175 CC12        2.0770   -7.7840    9.7890 C.2       1 LNA1        0.0000
    176 H12R        2.4190   -8.0720   10.7950 H         1 LNA1        0.0000
    177 CC13        2.6450   -8.3710    8.7180 C.2       1 LNA1        0.0000
    178 H13R        3.4320   -9.1220    8.8820 H         1 LNA1        0.0000
    179 CC14        2.3110   -8.1050    7.2700 C.3       1 LNA1        0.0000
    180 H14R        3.1790   -7.6300    6.7620 H         1 LNA1        0.0000
    181 H14S        1.4630   -7.3900    7.1800 H         1 LNA1        0.0000
    182 CC15        1.9250   -9.3750    6.4840 C.3       1 LNA1        0.0000
    183 H15R        1.5500   -9.0530    5.4850 H         1 LNA1        0.0000
    184 H15S        1.0890   -9.8960    7.0010 H         1 LNA1        0.0000
    185 CC16        3.0910  -10.3570    6.2750 C.3       1 LNA1        0.0000
    186 H16R        3.5080  -10.6440    7.2650 H         1 LNA1        0.0000
    187 H16S        3.8960   -9.8450    5.7040 H         1 LNA1        0.0000
    188 CC17        2.6960  -11.6450    5.5340 C.3       1 LNA1        0.0000
    189 H17R        1.9320  -12.1840    6.1400 H         1 LNA1        0.0000
    190 H17S        3.5940  -12.3030    5.4760 H         1 LNA1        0.0000
    191 CC18        2.1500  -11.4300    4.1190 C.3       1 LNA1        0.0000
    192 H18R        2.8830  -10.8680    3.5010 H         1 LNA1        0.0000
    193 H18S        1.1990  -10.8560    4.1480 H         1 LNA1        0.0000
    194 H18T        1.9490  -12.4050    3.6260 H         1 LNA1        0.0000
    195 CD3         6.9410   -3.8350    4.6860 C.3       1 LNA1        0.0000
    196 H3X         6.9090   -4.1190    3.6100 H         1 LNA1        0.0000
    197 H3Y         5.9390   -3.4280    4.9520 H         1 LNA1        0.0000
    198 CD4         7.1710   -5.0840    5.5410 C.3       1 LNA1        0.0000
    199 H4X         7.2470   -4.7770    6.6080 H         1 LNA1        0.0000
    200 H4Y         8.1350   -5.5580    5.2520 H         1 LNA1        0.0000
    201 CD5         6.0320   -6.1030    5.3920 C.3       1 LNA1        0.0000
    202 H5X         5.9390   -6.3730    4.3150 H         1 LNA1        0.0000
    203 H5Y         5.0740   -5.6300    5.7040 H         1 LNA1        0.0000
    204 CD6         6.2460   -7.3870    6.2070 C.3       1 LNA1        0.0000
    205 H6X         7.2360   -7.8230    5.9470 H         1 LNA1        0.0000
    206 H6Y         5.4660   -8.1270    5.9200 H         1 LNA1        0.0000
    207 CD7         6.1700   -7.1670    7.7250 C.3       1 LNA1        0.0000
    208 H7X         5.1760   -6.7340    7.9780 H         1 LNA1        0.0000
    209 H7Y         6.9460   -6.4260    8.0230 H         1 LNA1        0.0000
    210 CD8         6.3890   -8.4690    8.5160 C.3       1 LNA1        0.0000
    211 H8X         7.3670   -8.9040    8.2100 H         1 LNA1        0.0000
    212 H8Y         5.6130   -9.2070    8.2180 H         1 LNA1        0.0000
    213 CD9         6.3460   -8.2300   10.0050 C.2       1 LNA1        0.0000
    214 H9X         5.3710   -8.4110   10.4830 H         1 LNA1        0.0000
    215 CD10        7.3780   -7.8140   10.7640 C.2       1 LNA1        0.0000
    216 H10X        7.2160   -7.6650   11.8450 H         1 LNA1        0.0000
    217 CD11        8.7690   -7.4870   10.2770 C.3       1 LNA1        0.0000
    218 H11X        8.9560   -6.4030   10.4400 H         1 LNA1        0.0000
    219 H11Y        8.8640   -7.6280    9.1790 H         1 LNA1        0.0000
    220 CD12        9.8120   -8.3370   10.9630 C.2       1 LNA1        0.0000
    221 H12X        9.8040   -9.3990   10.6720 H         1 LNA1        0.0000
    222 CD13       10.7350   -7.9160   11.8500 C.2       1 LNA1        0.0000
    223 H13X       11.4500   -8.6460   12.2610 H         1 LNA1        0.0000
    224 CD14       10.8930   -6.5080   12.3670 C.3       1 LNA1        0.0000
    225 H14X       11.1160   -6.5320   13.4560 H         1 LNA1        0.0000
    226 H14Y        9.9510   -5.9290   12.2550 H         1 LNA1        0.0000
    227 CD15       12.0150   -5.7420   11.6400 C.3       1 LNA1        0.0000
    228 H15X       11.8560   -5.8190   10.5390 H         1 LNA1        0.0000
    229 H15Y       12.9970   -6.2090   11.8740 H         1 LNA1        0.0000
    230 CD16       12.0670   -4.2470   12.0020 C.3       1 LNA1        0.0000
    231 H16X       11.0950   -3.7770   11.7360 H         1 LNA1        0.0000
    232 H16Y       12.8540   -3.7580   11.3850 H         1 LNA1        0.0000
    233 CD17       12.3670   -3.9740   13.4830 C.3       1 LNA1        0.0000
    234 H17X       13.3260   -4.4720   13.7510 H         1 LNA1        0.0000
    235 H17Y       11.5660   -4.4270   14.1090 H         1 LNA1        0.0000
    236 CD18       12.4620   -2.4820   13.8130 C.3       1 LNA1        0.0000
    237 H18X       11.5030   -1.9710   13.5790 H         1 LNA1        0.0000
    238 H18Y       13.2700   -2.0030   13.2200 H         1 LNA1        0.0000
    239 H18Z       12.6820   -2.3340   14.8920 H         1 LNA1        0.0000
@<TRIPOS>BOND
     1    3    1 1 
     2   13   12 1 
     3   15   14 1 
     4   49   48 2 
     5   11    9 1 
     6   14   12 1 
     7    7    1 1 
     8    7    4 1 
     9    1   12 1 
    10    1    2 1 
    11   12   16 1 
    12   10    9 1 
    13   46   45 1 
    14    9   45 1 
    15    9    8 1 
    16    6    4 2 
    17   51   50 1 
    18   48   50 1 
    19   48   47 1 
    20   23   16 1 
    21   23   19 1 
    22    4    8 1 
    23    4    5 1 
    24   45   47 1 
    25   45   53 1 
    26   16   18 1 
    27   16   17 1 
    28   50   52 1 
    29   50  150 1 
    30  152  150 1 
    31   55   53 1 
    32   22   19 2 
    33   19   20 1 
    34   19   24 1 
    35   53   56 1 
    36   53   54 1 
    37   21   20 1 
    38  150  151 1 
    39  150  153 1 
    40  155  153 1 
    41   56   57 1 
    42  153  154 1 
    43  153  156 1 
    44  192  191 1 
    45   24   25 1 
    46   34   33 1 
    47  157  156 1 
    48  196  195 1 
    49  194  191 1 
    50  191  193 1 
    51  191  188 1 
    52  156  158 1 
    53  156  159 1 
    54   57   59 1 
    55   57   58 2 
    56  202  201 1 
    57   61   59 1 
    58   33   35 1 
    59   33   31 1 
    60   33   62 1 
    61  195   59 1 
    62  195  197 1 
    63  195  198 1 
    64   64   62 1 
    65   29   28 1 
    66   25   27 1 
    67   25   28 1 
    68   25   26 1 
    69   59   60 1 
    70   30   31 1 
    71   30   28 1 
    72   31   32 2 
    73  161  159 1 
    74  200  198 1 
    75   63   62 1 
    76   62   65 1 
    77   28   36 1 
    78  201  198 1 
    79  201  203 1 
    80  201  204 1 
    81  190  188 1 
    82  183  182 1 
    83  159  160 1 
    84  159  162 1 
    85  188  189 1 
    86  188  185 1 
    87  198  199 1 
    88  163  162 1 
    89  187  185 1 
    90  206  204 1 
    91  205  204 1 
    92  204  207 1 
    93  162  164 1 
    94  162  165 1 
    95  185  182 1 
    96  185  186 1 
    97  182  184 1 
    98  182  179 1 
    99  180  179 1 
   100   65   66 1 
   101   65   67 1 
   102   65   68 1 
   103   36   37 1 
   104   36   38 1 
   105   36   39 1 
   106   70   68 1 
   107   69   68 1 
   108  181  179 1 
   109  179  177 1 
   110   68   71 1 
   111  166  165 1 
   112  165  167 1 
   113  165  168 1 
   114   39   40 1 
   115  207  208 1 
   116  207  209 1 
   117  207  210 1 
   118  107  105 1 
   119   41   40 2 
   120   78   77 1 
   121   40   42 1 
   122  211  210 1 
   123  212  210 1 
   124   43   42 1 
   125  169  168 1 
   126  210  213 1 
   127  168  170 2 
   128  177  178 1 
   129  177  175 2 
   130  105   42 1 
   131  105  106 1 
   132  105  108 1 
   133   42   44 1 
   134   81   80 1 
   135   71   72 1 
   136   71   73 1 
   137   71   74 1 
   138  110  108 1 
   139  173  172 1 
   140  219  217 1 
   141   77   74 1 
   142   77   80 1 
   143   77   79 1 
   144   75   74 1 
   145  109  108 1 
   146  170  172 1 
   147  170  171 1 
   148  108  111 1 
   149   74   76 1 
   150   80   82 2 
   151  172  175 1 
   152  172  174 1 
   153  175  176 1 
   154  213  214 1 
   155  213  215 2 
   156  217  218 1 
   157  217  215 1 
   158  217  220 1 
   159  228  227 1 
   160   82   83 1 
   161   82   84 1 
   162  221  220 1 
   163  118  117 1 
   164  215  216 1 
   165  220  222 2 
   166  124  123 1 
   167  111  113 1 
   168  111  112 1 
   169  111  114 1 
   170  232  230 1 
   171   86   84 1 
   172  116  114 1 
   173  102  101 1 
   174  227  229 1 
   175  227  230 1 
   176  227  224 1 
   177   85   84 1 
   178   84   87 1 
   179  231  230 1 
   180  117  114 1 
   181  117  119 1 
   182  117  120 1 
   183  114  115 1 
   184  222  223 1 
   185  222  224 1 
   186  104  101 1 
   187  230  233 1 
   188  123  120 1 
   189  123  125 2 
   190  103  101 1 
   191  101   98 1 
   192  226  224 1 
   193  126  125 1 
   194   95   94 1 
   195  224  225 1 
   196  121  120 1 
   197  120  122 1 
   198  125  127 1 
   199   87   88 1 
   200   87   89 2 
   201  238  236 1 
   202   93   91 1 
   203   94   91 1 
   204   94   96 2 
   205  233  234 1 
   206  233  236 1 
   207  233  235 1 
   208  237  236 1 
   209   98  100 1 
   210   98   96 1 
   211   98   99 1 
   212  236  239 1 
   213   91   89 1 
   214   91   92 1 
   215   89   90 1 
   216   96   97 1 
   217  127  128 1 
   218  127  129 1 
   219  127  130 1 
   220  136  134 1 
   221  130  131 1 
   222  130  132 2 
   223  132  134 1 
   224  132  133 1 
   225  134  135 1 
   226  134  137 1 
   227  138  137 1 
   228  139  137 1 
   229  137  140 1 
   230  142  140 1 
   231  140  141 1 
   232  140  143 1 
   233  144  143 1 
   234  145  143 1 
   235  143  146 1 
   236  146  148 1 
   237  146  147 1 
   238  146  149 1 
