@<TRIPOS>MOLECULE
C:\Users\Praveer\PycharmProjects\pdb_to_mol2_converter\data\pdb\lnbcl1.pdb
  239   238     0     0     0
SMALL
GASTEIGER

@<TRIPOS>ATOM
      1 C3          1.5610    0.0060    0.0230 C.3       1 LNB1        0.0000
      2 HG31        1.9100   -0.5990    0.8950 H         1 LNB1        0.0000
      3 HG32        1.9280   -0.5030   -0.8960 H         1 LNB1        0.0000
      4 P3          3.0010    1.8940    1.1800 P.3       1 LNB1        0.0000
      5 OP33        2.1490    2.2160    2.3470 O.3       1 LNB1        0.0000
      6 OP34        3.8790    2.9500    0.6440 O.2       1 LNB1        0.0000
      7 OP31        2.0700    1.3390    0.0260 O.3       1 LNB1        0.0000
      8 OP32        3.8760    0.6280    1.5480 O.3       1 LNB1        0.0000
      9 C31         4.8690    0.1700    0.6290 C.3       1 LNB1        0.0000
     10 H31J        5.5940    0.9830    0.3850 H         1 LNB1        0.0000
     11 H31K        4.4010   -0.1630   -0.3250 H         1 LNB1        0.0000
     12 C2          0.0140   -0.0160    0.0310 C.3       1 LNB1        0.0000
     13 HG22       -0.3630    0.5230   -0.8670 H         1 LNB1        0.0000
     14 OG12       -0.3940   -1.3840   -0.0460 O.3       1 LNB1        0.0000
     15 HO12        0.0840   -1.7520   -0.7950 H         1 LNB1        0.0000
     16 C1         -0.6070    0.6620    1.2880 C.3       1 LNB1        0.0000
     17 HG11        0.1240    0.4890    2.1180 H         1 LNB1        0.0000
     18 HG12       -1.5550    0.1320    1.5370 H         1 LNB1        0.0000
     19 P1         -1.1070    2.9400    2.3270 P.3       1 LNB1        0.0000
     20 OP13        0.1300    3.8770    2.5450 O.3       1 LNB1        0.0000
     21 HP13        0.9540    3.3530    2.4640 H         1 LNB1        0.0000
     22 OP14       -2.3310    3.7570    2.2970 O.2       1 LNB1        0.0000
     23 OP11       -0.8950    2.0470    1.0490 O.3       1 LNB1        0.0000
     24 OP12       -1.1380    1.9320    3.5300 O.3       1 LNB1        0.0000
     25 C11        -0.9700    2.4520    4.8490 C.3       1 LNB1        0.0000
     26 H11J       -1.6290    1.8590    5.5220 H         1 LNB1        0.0000
     27 H11K       -1.2780    3.5190    4.9650 H         1 LNB1        0.0000
     28 C12         0.4910    2.2680    5.3710 C.3       1 LNB1        0.0000
     29 H12J        1.1270    2.9940    4.8090 H         1 LNB1        0.0000
     30 O12         0.9310    0.9260    5.0820 O.3       1 LNB1        0.0000
     31 CA1         2.2550    0.7700    5.1440 C.2       1 LNB1        0.0000
     32 OA1         3.0440    1.6060    5.5440 O.2       1 LNB1        0.0000
     33 CA2         2.6150   -0.6190    4.6180 C.3       1 LNB1        0.0000
     34 H2A         2.8240   -0.5040    3.5330 H         1 LNB1        0.0000
     35 H2B         1.7430   -1.2910    4.7410 H         1 LNB1        0.0000
     36 C13         0.5870    2.6160    6.8890 C.3       1 LNB1        0.0000
     37 H13J        0.4400    3.7160    6.9740 H         1 LNB1        0.0000
     38 H13K        1.6030    2.4110    7.2920 H         1 LNB1        0.0000
     39 O13        -0.4500    1.9690    7.6530 O.3       1 LNB1        0.0000
     40 CB1        -0.1620    0.7540    8.1100 C.2       1 LNB1        0.0000
     41 OB1         0.9010    0.1770    7.9970 O.2       1 LNB1        0.0000
     42 CB2        -1.3880    0.2020    8.8330 C.3       1 LNB1        0.0000
     43 H2D        -2.3030    0.6080    8.3550 H         1 LNB1        0.0000
     44 H2E        -1.3420    0.5640    9.8810 H         1 LNB1        0.0000
     45 C32         5.6600   -1.0060    1.2610 C.3       1 LNB1        0.0000
     46 H32J        6.3480   -1.4370    0.4970 H         1 LNB1        0.0000
     47 O32         4.7760   -2.0210    1.7720 O.3       1 LNB1        0.0000
     48 CC1         4.0770   -2.6750    0.8710 C.2       1 LNB1        0.0000
     49 OC1         4.2170   -2.6250   -0.3380 O.2       1 LNB1        0.0000
     50 CC2         3.0480   -3.5490    1.5890 C.3       1 LNB1        0.0000
     51 H2R         2.4710   -4.1010    0.8200 H         1 LNB1        0.0000
     52 H2S         2.3610   -2.8580    2.1210 H         1 LNB1        0.0000
     53 C33         6.5290   -0.4920    2.4390 C.3       1 LNB1        0.0000
     54 H33J        5.8180   -0.0170    3.1590 H         1 LNB1        0.0000
     55 H33K        7.2270    0.2900    2.0680 H         1 LNB1        0.0000
     56 O33         7.2630   -1.5870    3.0300 O.3       1 LNB1        0.0000
     57 CD1         7.5850   -1.4040    4.3040 C.2       1 LNB1        0.0000
     58 OD1         7.5130   -0.3600    4.9160 O.2       1 LNB1        0.0000
     59 CD2         8.0160   -2.7390    4.9080 C.3       1 LNB1        0.0000
     60 H2X         8.1550   -2.5670    5.9960 H         1 LNB1        0.0000
     61 H2Y         8.9850   -3.0370    4.4630 H         1 LNB1        0.0000
     62 CA3         3.8570   -1.2130    5.3170 C.3       1 LNB1        0.0000
     63 H3A         4.7070   -0.4940    5.2700 H         1 LNB1        0.0000
     64 H3B         4.1630   -2.1220    4.7530 H         1 LNB1        0.0000
     65 CA4         3.5880   -1.6030    6.7760 C.3       1 LNB1        0.0000
     66 H4A         2.6610   -2.2140    6.8390 H         1 LNB1        0.0000
     67 H4B         3.4160   -0.6730    7.3650 H         1 LNB1        0.0000
     68 CA5         4.7490   -2.3850    7.4050 C.3       1 LNB1        0.0000
     69 H5A         5.6950   -1.8490    7.1670 H         1 LNB1        0.0000
     70 H5B         4.8040   -3.3970    6.9480 H         1 LNB1        0.0000
     71 CA6         4.6150   -2.5180    8.9290 C.3       1 LNB1        0.0000
     72 H6A         3.6350   -2.9860    9.1660 H         1 LNB1        0.0000
     73 H6B         4.6070   -1.4970    9.3740 H         1 LNB1        0.0000
     74 CA7         5.7300   -3.3520    9.5880 C.3       1 LNB1        0.0000
     75 H7A         5.6210   -4.4090    9.2550 H         1 LNB1        0.0000
     76 H7B         5.5810   -3.3330   10.6920 H         1 LNB1        0.0000
     77 CA8         7.1700   -2.8940    9.2750 C.3       1 LNB1        0.0000
     78 H8A         7.3650   -3.0490    8.1920 H         1 LNB1        0.0000
     79 H8B         7.8640   -3.5780    9.8120 H         1 LNB1        0.0000
     80 CA9         7.4170   -1.4470    9.6290 C.2       1 LNB1        0.0000
     81 H9A         6.9430   -0.7290    8.9400 H         1 LNB1        0.0000
     82 CA10        8.1210   -0.9640   10.6710 C.2       1 LNB1        0.0000
     83 H10A        8.2030    0.1290   10.7790 H         1 LNB1        0.0000
     84 CA11        8.8370   -1.7540   11.7410 C.3       1 LNB1        0.0000
     85 H11A        9.8980   -1.4230   11.7780 H         1 LNB1        0.0000
     86 H11B        8.8740   -2.8350   11.4860 H         1 LNB1        0.0000
     87 CA12        8.2080   -1.5460   13.0990 C.2       1 LNB1        0.0000
     88 H12A        7.8390   -0.5270   13.3020 H         1 LNB1        0.0000
     89 CA13        8.0440   -2.4870   14.0470 C.2       1 LNB1        0.0000
     90 H13A        7.5580   -2.2100   14.9950 H         1 LNB1        0.0000
     91 CA14        8.4770   -3.9280   13.9510 C.3       1 LNB1        0.0000
     92 H14A        8.7570   -4.3090   14.9570 H         1 LNB1        0.0000
     93 H14B        9.3870   -4.0200   13.3190 H         1 LNB1        0.0000
     94 CA15        7.3920   -4.8500   13.3570 C.3       1 LNB1        0.0000
     95 H15A        7.8100   -5.8790   13.2870 H         1 LNB1        0.0000
     96 H15B        7.1530   -4.5170   12.3220 H         1 LNB1        0.0000
     97 CA16        6.1050   -4.9050   14.1960 C.3       1 LNB1        0.0000
     98 H16A        5.6300   -3.8990   14.1960 H         1 LNB1        0.0000
     99 H16B        6.3770   -5.1510   15.2470 H         1 LNB1        0.0000
    100 CA17        5.0770   -5.9330   13.6960 C.3       1 LNB1        0.0000
    101 H17A        4.2200   -5.9390   14.4090 H         1 LNB1        0.0000
    102 H17B        5.5390   -6.9450   13.7230 H         1 LNB1        0.0000
    103 CA18        4.5400   -5.6580   12.2890 C.3       1 LNB1        0.0000
    104 H18A        5.3490   -5.7400   11.5330 H         1 LNB1        0.0000
    105 H18B        4.1160   -4.6330   12.2320 H         1 LNB1        0.0000
    106 H18C        3.7400   -6.3820   12.0260 H         1 LNB1        0.0000
    107 CB3        -1.4210   -1.3400    8.7990 C.3       1 LNB1        0.0000
    108 H3D        -0.4910   -1.7460    9.2590 H         1 LNB1        0.0000
    109 H3E        -1.4350   -1.6850    7.7390 H         1 LNB1        0.0000
    110 CB4        -2.6410   -1.9350    9.5200 C.3       1 LNB1        0.0000
    111 H4D        -2.6030   -3.0440    9.4240 H         1 LNB1        0.0000
    112 H4E        -3.5670   -1.5930    9.0060 H         1 LNB1        0.0000
    113 CB5        -2.7460   -1.5740   11.0140 C.3       1 LNB1        0.0000
    114 H5D        -3.5990   -2.1370   11.4550 H         1 LNB1        0.0000
    115 H5E        -2.9850   -0.4910   11.1080 H         1 LNB1        0.0000
    116 CB6        -1.4820   -1.8650   11.8420 C.3       1 LNB1        0.0000
    117 H6D        -1.6770   -1.5930   12.9030 H         1 LNB1        0.0000
    118 H6E        -0.6580   -1.2100   11.4850 H         1 LNB1        0.0000
    119 CB7        -1.0270   -3.3330   11.7890 C.3       1 LNB1        0.0000
    120 H7D        -0.8250   -3.6320   10.7370 H         1 LNB1        0.0000
    121 H7E        -1.8600   -3.9730   12.1580 H         1 LNB1        0.0000
    122 CB8         0.2260   -3.6160   12.6410 C.3       1 LNB1        0.0000
    123 H8D         0.4290   -4.7100   12.6080 H         1 LNB1        0.0000
    124 H8E        -0.0130   -3.3550   13.6970 H         1 LNB1        0.0000
    125 CB9         1.4330   -2.8630   12.1370 C.2       1 LNB1        0.0000
    126 H9D         1.4390   -2.6720   11.0530 H         1 LNB1        0.0000
    127 CB10        2.4360   -2.3710   12.8880 C.2       1 LNB1        0.0000
    128 H10D        3.2570   -1.8320   12.3880 H         1 LNB1        0.0000
    129 CB11        2.5940   -2.5250   14.3800 C.3       1 LNB1        0.0000
    130 H11D        3.5650   -3.0260   14.5830 H         1 LNB1        0.0000
    131 H11E        1.8310   -3.2090   14.8090 H         1 LNB1        0.0000
    132 CB12        2.5090   -1.1910   15.0830 C.2       1 LNB1        0.0000
    133 H12D        1.5030   -0.7450   15.1110 H         1 LNB1        0.0000
    134 CB13        3.5290   -0.5350   15.6690 C.2       1 LNB1        0.0000
    135 H13D        3.3300    0.4280   16.1640 H         1 LNB1        0.0000
    136 CB14        4.9640   -1.0010   15.7330 C.3       1 LNB1        0.0000
    137 H14D        5.6380   -0.1160   15.7480 H         1 LNB1        0.0000
    138 H14E        5.2330   -1.5540   14.8060 H         1 LNB1        0.0000
    139 CB15        5.2220   -1.8830   16.9300 C.2       1 LNB1        0.0000
    140 H15D        5.1410   -2.9660   16.7510 H         1 LNB1        0.0000
    141 CB16        5.4950   -1.4470   18.1720 C.2       1 LNB1        0.0000
    142 H16D        5.5300   -0.3660   18.3740 H         1 LNB1        0.0000
    143 CB17        5.6970   -2.3540   19.3570 C.3       1 LNB1        0.0000
    144 H17D        6.7300   -2.7650   19.3460 H         1 LNB1        0.0000
    145 H17E        5.0010   -3.2220   19.3100 H         1 LNB1        0.0000
    146 CB18        5.4780   -1.6220   20.6900 C.3       1 LNB1        0.0000
    147 H18D        4.4440   -1.2230   20.7630 H         1 LNB1        0.0000
    148 H18E        6.1930   -0.7790   20.8020 H         1 LNB1        0.0000
    149 H18F        5.6380   -2.3200   21.5390 H         1 LNB1        0.0000
    150 CC3         3.7080   -4.5330    2.5830 C.3       1 LNB1        0.0000
    151 H3R         4.3600   -3.9610    3.2830 H         1 LNB1        0.0000
    152 H3S         4.3580   -5.2490    2.0310 H         1 LNB1        0.0000
    153 CC4         2.7020   -5.3190    3.4370 C.3       1 LNB1        0.0000
    154 H4R         3.2780   -5.9420    4.1600 H         1 LNB1        0.0000
    155 H4S         2.1090   -6.0100    2.7990 H         1 LNB1        0.0000
    156 CC5         1.7510   -4.4090    4.2260 C.3       1 LNB1        0.0000
    157 H5R         0.9190   -4.0730    3.5700 H         1 LNB1        0.0000
    158 H5S         2.3140   -3.5040    4.5480 H         1 LNB1        0.0000
    159 CC6         1.1950   -5.0720    5.4900 C.3       1 LNB1        0.0000
    160 H6R         2.0520   -5.2820    6.1690 H         1 LNB1        0.0000
    161 H6S         0.7210   -6.0450    5.2330 H         1 LNB1        0.0000
    162 CC7         0.1710   -4.1830    6.2140 C.3       1 LNB1        0.0000
    163 H7R        -0.7640   -4.1690    5.6100 H         1 LNB1        0.0000
    164 H7S         0.5490   -3.1360    6.2540 H         1 LNB1        0.0000
    165 CC8        -0.1570   -4.6700    7.6380 C.3       1 LNB1        0.0000
    166 H8R        -0.4750   -5.7340    7.5700 H         1 LNB1        0.0000
    167 H8S        -1.0330   -4.0960    8.0080 H         1 LNB1        0.0000
    168 CC9         1.0090   -4.4680    8.5760 C.2       1 LNB1        0.0000
    169 H9R         1.4980   -3.4860    8.4800 H         1 LNB1        0.0000
    170 CC10        1.5060   -5.3520    9.4630 C.2       1 LNB1        0.0000
    171 H10R        2.3740   -5.0480   10.0710 H         1 LNB1        0.0000
    172 CC11        0.9860   -6.7420    9.7520 C.3       1 LNB1        0.0000
    173 H11R        0.2050   -7.0450    9.0210 H         1 LNB1        0.0000
    174 H11S        0.4680   -6.7320   10.7360 H         1 LNB1        0.0000
    175 CC12        2.0710   -7.7910    9.7810 C.2       1 LNB1        0.0000
    176 H12R        2.4060   -8.0850   10.7870 H         1 LNB1        0.0000
    177 CC13        2.6390   -8.3790    8.7100 C.2       1 LNB1        0.0000
    178 H13R        3.4230   -9.1320    8.8750 H         1 LNB1        0.0000
    179 CC14        2.3080   -8.1070    7.2620 C.3       1 LNB1        0.0000
    180 H14R        3.1780   -7.6320    6.7560 H         1 LNB1        0.0000
    181 H14S        1.4620   -7.3890    7.1730 H         1 LNB1        0.0000
    182 CC15        1.9200   -9.3740    6.4740 C.3       1 LNB1        0.0000
    183 H15R        1.5500   -9.0510    5.4740 H         1 LNB1        0.0000
    184 H15S        1.0800   -9.8930    6.9860 H         1 LNB1        0.0000
    185 CC16        3.0860  -10.3550    6.2680 C.3       1 LNB1        0.0000
    186 H16R        3.5100  -10.6370    7.2570 H         1 LNB1        0.0000
    187 H16S        3.8880   -9.8440    5.6910 H         1 LNB1        0.0000
    188 CC17        2.6910  -11.6470    5.5350 C.3       1 LNB1        0.0000
    189 H17R        1.9260  -12.1830    6.1420 H         1 LNB1        0.0000
    190 H17S        3.5890  -12.3050    5.4820 H         1 LNB1        0.0000
    191 CC18        2.1500  -11.4390    4.1170 C.3       1 LNB1        0.0000
    192 H18R        2.8750  -10.8600    3.5060 H         1 LNB1        0.0000
    193 H18S        1.1870  -10.8850    4.1400 H         1 LNB1        0.0000
    194 H18T        1.9740  -12.4180    3.6210 H         1 LNB1        0.0000
    195 CD3         6.9460   -3.8310    4.6830 C.3       1 LNB1        0.0000
    196 H3X         6.9100   -4.1130    3.6060 H         1 LNB1        0.0000
    197 H3Y         5.9450   -3.4230    4.9510 H         1 LNB1        0.0000
    198 CD4         7.1730   -5.0810    5.5390 C.3       1 LNB1        0.0000
    199 H4X         7.2380   -4.7730    6.6060 H         1 LNB1        0.0000
    200 H4Y         8.1410   -5.5530    5.2610 H         1 LNB1        0.0000
    201 CD5         6.0380   -6.1020    5.3740 C.3       1 LNB1        0.0000
    202 H5X         5.9580   -6.3700    4.2960 H         1 LNB1        0.0000
    203 H5Y         5.0750   -5.6300    5.6760 H         1 LNB1        0.0000
    204 CD6         6.2440   -7.3870    6.1890 C.3       1 LNB1        0.0000
    205 H6X         7.2330   -7.8270    5.9310 H         1 LNB1        0.0000
    206 H6Y         5.4620   -8.1240    5.8980 H         1 LNB1        0.0000
    207 CD7         6.1650   -7.1670    7.7060 C.3       1 LNB1        0.0000
    208 H7X         5.1700   -6.7350    7.9580 H         1 LNB1        0.0000
    209 H7Y         6.9390   -6.4260    8.0080 H         1 LNB1        0.0000
    210 CD8         6.3860   -8.4690    8.4960 C.3       1 LNB1        0.0000
    211 H8X         7.3690   -8.8970    8.1940 H         1 LNB1        0.0000
    212 H8Y         5.6160   -9.2110    8.1930 H         1 LNB1        0.0000
    213 CD9         6.3350   -8.2350    9.9860 C.2       1 LNB1        0.0000
    214 H9X         5.3590   -8.4250   10.4590 H         1 LNB1        0.0000
    215 CD10        7.3590   -7.8120   10.7500 C.2       1 LNB1        0.0000
    216 H10X        7.1910   -7.6690   11.8300 H         1 LNB1        0.0000
    217 CD11        8.7510   -7.4690   10.2730 C.3       1 LNB1        0.0000
    218 H11X        8.9300   -6.3860   10.4500 H         1 LNB1        0.0000
    219 H11Y        8.8490   -7.5940    9.1730 H         1 LNB1        0.0000
    220 CD12        9.7980   -8.3220   10.9510 C.2       1 LNB1        0.0000
    221 H12X        9.7800   -9.3850   10.6610 H         1 LNB1        0.0000
    222 CD13       10.7340   -7.9080   11.8270 C.2       1 LNB1        0.0000
    223 H13X       11.4460   -8.6440   12.2310 H         1 LNB1        0.0000
    224 CD14       10.9140   -6.5010   12.3420 C.3       1 LNB1        0.0000
    225 H14X       11.1150   -6.5240   13.4350 H         1 LNB1        0.0000
    226 H14Y        9.9880   -5.9000   12.2090 H         1 LNB1        0.0000
    227 CD15       12.0610   -5.7580   11.6310 C.3       1 LNB1        0.0000
    228 H15X       11.9150   -5.8360   10.5280 H         1 LNB1        0.0000
    229 H15Y       13.0330   -6.2400   11.8780 H         1 LNB1        0.0000
    230 CD16       12.1300   -4.2630   11.9880 C.3       1 LNB1        0.0000
    231 H16X       11.1640   -3.7820   11.7150 H         1 LNB1        0.0000
    232 H16Y       12.9260   -3.7850   11.3740 H         1 LNB1        0.0000
    233 CD17       12.4250   -3.9880   13.4690 C.3       1 LNB1        0.0000
    234 H17X       13.3930   -4.4720   13.7360 H         1 LNB1        0.0000
    235 H17Y       11.6340   -4.4560   14.0970 H         1 LNB1        0.0000
    236 CD18       12.4960   -2.4960   13.8030 C.3       1 LNB1        0.0000
    237 H18X       11.5240   -2.0040   13.5830 H         1 LNB1        0.0000
    238 H18Y       13.2870   -1.9990   13.2010 H         1 LNB1        0.0000
    239 H18Z       12.7270   -2.3480   14.8800 H         1 LNB1        0.0000
@<TRIPOS>BOND
     1    3    1 1 
     2   13   12 1 
     3   15   14 1 
     4   49   48 2 
     5   11    9 1 
     6   14   12 1 
     7    1    7 1 
     8    1   12 1 
     9    1    2 1 
    10    7    4 1 
    11   12   16 1 
    12   10    9 1 
    13   46   45 1 
    14    9   45 1 
    15    9    8 1 
    16    6    4 2 
    17   51   50 1 
    18   48   50 1 
    19   48   47 1 
    20   23   16 1 
    21   23   19 1 
    22    4    8 1 
    23    4    5 1 
    24   45   47 1 
    25   45   53 1 
    26   16   18 1 
    27   16   17 1 
    28   50   52 1 
    29   50  150 1 
    30  152  150 1 
    31   55   53 1 
    32   22   19 2 
    33   19   20 1 
    34   19   24 1 
    35   53   56 1 
    36   53   54 1 
    37   21   20 1 
    38  150  151 1 
    39  150  153 1 
    40  155  153 1 
    41   56   57 1 
    42  153  154 1 
    43  153  156 1 
    44  192  191 1 
    45   24   25 1 
    46   34   33 1 
    47  157  156 1 
    48  196  195 1 
    49  194  191 1 
    50  191  193 1 
    51  191  188 1 
    52  156  158 1 
    53  156  159 1 
    54  202  201 1 
    55   57   59 1 
    56   57   58 2 
    57   61   59 1 
    58   33   35 1 
    59   33   31 1 
    60   33   62 1 
    61  195   59 1 
    62  195  197 1 
    63  195  198 1 
    64   64   62 1 
    65   29   28 1 
    66   25   27 1 
    67   25   28 1 
    68   25   26 1 
    69   59   60 1 
    70   30   31 1 
    71   30   28 1 
    72   31   32 2 
    73  161  159 1 
    74  200  198 1 
    75   63   62 1 
    76   62   65 1 
    77   28   36 1 
    78  201  198 1 
    79  201  203 1 
    80  201  204 1 
    81  183  182 1 
    82  190  188 1 
    83  159  160 1 
    84  159  162 1 
    85  188  189 1 
    86  188  185 1 
    87  198  199 1 
    88  163  162 1 
    89  187  185 1 
    90  206  204 1 
    91  205  204 1 
    92  204  207 1 
    93  162  164 1 
    94  162  165 1 
    95  185  182 1 
    96  185  186 1 
    97  182  184 1 
    98  182  179 1 
    99  180  179 1 
   100   65   66 1 
   101   65   67 1 
   102   65   68 1 
   103   36   37 1 
   104   36   38 1 
   105   36   39 1 
   106   70   68 1 
   107   69   68 1 
   108  181  179 1 
   109  179  177 1 
   110   68   71 1 
   111  166  165 1 
   112  165  167 1 
   113  165  168 1 
   114   39   40 1 
   115  207  208 1 
   116  207  209 1 
   117  207  210 1 
   118  109  107 1 
   119   41   40 2 
   120   40   42 1 
   121   78   77 1 
   122  212  210 1 
   123  211  210 1 
   124   43   42 1 
   125  169  168 1 
   126  210  213 1 
   127  168  170 2 
   128  177  178 1 
   129  177  175 2 
   130  107   42 1 
   131  107  108 1 
   132  107  110 1 
   133   42   44 1 
   134   71   72 1 
   135   71   73 1 
   136   71   74 1 
   137   81   80 1 
   138  112  110 1 
   139  173  172 1 
   140  219  217 1 
   141   75   74 1 
   142   77   74 1 
   143   77   80 1 
   144   77   79 1 
   145  111  110 1 
   146  170  172 1 
   147  170  171 1 
   148  110  113 1 
   149   74   76 1 
   150   80   82 2 
   151  172  175 1 
   152  172  174 1 
   153  175  176 1 
   154  213  214 1 
   155  213  215 2 
   156  217  218 1 
   157  217  215 1 
   158  217  220 1 
   159  228  227 1 
   160  221  220 1 
   161   82   83 1 
   162   82   84 1 
   163  120  119 1 
   164  215  216 1 
   165  220  222 2 
   166  113  115 1 
   167  113  114 1 
   168  113  116 1 
   169  126  125 1 
   170  232  230 1 
   171  118  116 1 
   172   86   84 1 
   173  104  103 1 
   174  227  229 1 
   175  227  230 1 
   176  227  224 1 
   177  231  230 1 
   178   84   85 1 
   179   84   87 1 
   180  119  116 1 
   181  119  121 1 
   182  119  122 1 
   183  222  223 1 
   184  222  224 1 
   185  116  117 1 
   186  230  233 1 
   187  106  103 1 
   188  125  122 1 
   189  125  127 2 
   190  226  224 1 
   191  105  103 1 
   192  103  100 1 
   193   96   94 1 
   194  224  225 1 
   195  128  127 1 
   196  123  122 1 
   197  122  124 1 
   198  127  129 1 
   199   87   88 1 
   200   87   89 2 
   201  238  236 1 
   202   95   94 1 
   203   93   91 1 
   204   94   91 1 
   205   94   97 1 
   206  233  234 1 
   207  233  236 1 
   208  233  235 1 
   209  237  236 1 
   210  100  102 1 
   211  100   97 1 
   212  100  101 1 
   213  236  239 1 
   214   91   89 1 
   215   91   92 1 
   216   89   90 1 
   217   97   98 1 
   218   97   99 1 
   219  129  130 1 
   220  129  131 1 
   221  129  132 1 
   222  138  136 1 
   223  132  133 1 
   224  132  134 2 
   225  134  136 1 
   226  134  135 1 
   227  136  137 1 
   228  136  139 1 
   229  140  139 1 
   230  139  141 2 
   231  141  142 1 
   232  141  143 1 
   233  145  143 1 
   234  144  143 1 
   235  143  146 1 
   236  146  147 1 
   237  146  148 1 
   238  146  149 1 
