@<TRIPOS>MOLECULE
C:\Users\Praveer\PycharmProjects\pdb_to_mol2_converter\data\pdb\lnbcl2.pdb
  238   237     0     0     0
SMALL
GASTEIGER

@<TRIPOS>ATOM
      1 C3          1.5380   -0.0180    0.0010 C.3       1 LNB1        0.0000
      2 HG31        1.8840   -0.5490    0.9180 H         1 LNB1        0.0000
      3 HG32        1.8790   -0.5980   -0.8910 H         1 LNB1        0.0000
      4 P3          3.6010    1.5270   -0.3020 P.3       1 LNB1        0.0000
      5 OP33        4.3650    0.4020    0.2760 O.3       1 LNB1        0.0000
      6 OP34        3.9920    2.9020    0.0770 O.2       1 LNB1        0.0000
      7 OP31        2.0490    1.3250   -0.0180 O.3       1 LNB1        0.0000
      8 OP32        3.6410    1.4160   -1.8850 O.3       1 LNB1        0.0000
      9 C31         3.0590    2.4790   -2.6470 C.3       1 LNB1        0.0000
     10 H31J        3.6930    3.3920   -2.5700 H         1 LNB1        0.0000
     11 H31K        2.0400    2.7420   -2.2780 H         1 LNB1        0.0000
     12 C2         -0.0110   -0.0340   -0.0050 C.3       1 LNB1        0.0000
     13 HG22       -0.3780    0.4630    0.9210 H         1 LNB1        0.0000
     14 OG12       -0.4180    0.7270   -1.1350 O.3       1 LNB1        0.0000
     15 HO12        0.2320    1.4410   -1.1140 H         1 LNB1        0.0000
     16 C1         -0.5810   -1.4790   -0.0600 C.3       1 LNB1        0.0000
     17 HG11       -0.0400   -2.0940    0.6970 H         1 LNB1        0.0000
     18 HG12       -0.3230   -1.8980   -1.0580 H         1 LNB1        0.0000
     19 P1         -2.6510   -1.7760    1.5500 P.3       1 LNB1        0.0000
     20 OP13       -2.2020   -0.7160    2.4780 O.3       1 LNB1        0.0000
     21 OP14       -4.1090   -1.9790    1.3990 O.2       1 LNB1        0.0000
     22 OP11       -2.0030   -1.5370    0.1200 O.3       1 LNB1        0.0000
     23 OP12       -1.9790   -3.1450    2.0010 O.3       1 LNB1        0.0000
     24 C11        -2.5510   -4.4180    1.6980 C.3       1 LNB1        0.0000
     25 H11J       -3.6630   -4.4150    1.7860 H         1 LNB1        0.0000
     26 H11K       -2.1620   -5.1440    2.4460 H         1 LNB1        0.0000
     27 C12        -2.1370   -4.9160    0.2890 C.3       1 LNB1        0.0000
     28 H12J       -1.0510   -4.6730    0.1890 H         1 LNB1        0.0000
     29 O12        -2.9520   -4.2320   -0.6730 O.3       1 LNB1        0.0000
     30 CA1        -2.3450   -3.8520   -1.7770 C.2       1 LNB1        0.0000
     31 OA1        -1.2210   -4.1770   -2.1290 O.2       1 LNB1        0.0000
     32 CA2        -3.2820   -2.9430   -2.5750 C.3       1 LNB1        0.0000
     33 H2A        -2.8410   -1.9240   -2.5560 H         1 LNB1        0.0000
     34 H2B        -4.2630   -2.8980   -2.0580 H         1 LNB1        0.0000
     35 C13        -2.3290   -6.4490    0.1150 C.3       1 LNB1        0.0000
     36 H13J       -3.4170   -6.6350   -0.0230 H         1 LNB1        0.0000
     37 H13K       -2.0310   -6.9750    1.0510 H         1 LNB1        0.0000
     38 O13        -1.6110   -6.9340   -1.0450 O.3       1 LNB1        0.0000
     39 CB1        -0.3160   -7.1500   -0.8130 C.2       1 LNB1        0.0000
     40 OB1         0.1900   -7.2600    0.2890 O.2       1 LNB1        0.0000
     41 CB2         0.4500   -7.1910   -2.1360 C.3       1 LNB1        0.0000
     42 H2D         0.2110   -6.2460   -2.6700 H         1 LNB1        0.0000
     43 H2E         0.0880   -8.0420   -2.7420 H         1 LNB1        0.0000
     44 C32         2.9620    2.0830   -4.1450 C.3       1 LNB1        0.0000
     45 H32J        2.5860    2.9610   -4.7220 H         1 LNB1        0.0000
     46 O32         2.0930    0.9480   -4.3220 O.3       1 LNB1        0.0000
     47 CC1         0.8040    1.2310   -4.2100 C.2       1 LNB1        0.0000
     48 OC1         0.3340    2.3490   -4.0780 O.2       1 LNB1        0.0000
     49 CC2         0.0200   -0.0720   -4.3690 C.3       1 LNB1        0.0000
     50 H2R         0.2250   -0.6850   -3.4640 H         1 LNB1        0.0000
     51 H2S         0.4200   -0.6140   -5.2490 H         1 LNB1        0.0000
     52 C33         4.3610    1.7370   -4.7210 C.3       1 LNB1        0.0000
     53 H33J        4.7740    0.9020   -4.1080 H         1 LNB1        0.0000
     54 H33K        5.0190    2.6270   -4.5940 H         1 LNB1        0.0000
     55 O33         4.2540    1.3510   -6.1090 O.3       1 LNB1        0.0000
     56 CD1         5.4160    1.0590   -6.6750 C.2       1 LNB1        0.0000
     57 OD1         6.5140    1.2290   -6.1770 O.2       1 LNB1        0.0000
     58 CD2         5.1470    0.4560   -8.0540 C.3       1 LNB1        0.0000
     59 H2X         4.3350    1.0380   -8.5350 H         1 LNB1        0.0000
     60 H2Y         4.7850   -0.5810   -7.8870 H         1 LNB1        0.0000
     61 CA3        -3.4630   -3.4380   -4.0240 C.3       1 LNB1        0.0000
     62 H3A        -3.7810   -4.5050   -4.0140 H         1 LNB1        0.0000
     63 H3B        -2.4870   -3.3790   -4.5560 H         1 LNB1        0.0000
     64 CA4        -4.4990   -2.6160   -4.8010 C.3       1 LNB1        0.0000
     65 H4A        -4.1900   -1.5470   -4.7720 H         1 LNB1        0.0000
     66 H4B        -5.4880   -2.6910   -4.2980 H         1 LNB1        0.0000
     67 CA5        -4.6300   -3.0510   -6.2690 C.3       1 LNB1        0.0000
     68 H5A        -3.6170   -3.0640   -6.7250 H         1 LNB1        0.0000
     69 H5B        -5.2390   -2.2950   -6.8120 H         1 LNB1        0.0000
     70 CA6        -5.2880   -4.4270   -6.4560 C.3       1 LNB1        0.0000
     71 H6A        -6.2900   -4.4000   -5.9700 H         1 LNB1        0.0000
     72 H6B        -4.6870   -5.2110   -5.9460 H         1 LNB1        0.0000
     73 CA7        -5.4660   -4.8110   -7.9340 C.3       1 LNB1        0.0000
     74 H7A        -5.9610   -3.9640   -8.4620 H         1 LNB1        0.0000
     75 H7B        -6.1490   -5.6880   -7.9910 H         1 LNB1        0.0000
     76 CA8        -4.1410   -5.1630   -8.6380 C.3       1 LNB1        0.0000
     77 H8A        -3.6900   -6.0430   -8.1280 H         1 LNB1        0.0000
     78 H8B        -3.4250   -4.3260   -8.4960 H         1 LNB1        0.0000
     79 CA9        -4.3630   -5.4680  -10.1000 C.2       1 LNB1        0.0000
     80 H9A        -4.8660   -6.4280  -10.2940 H         1 LNB1        0.0000
     81 CA10       -4.0300   -4.6920  -11.1510 C.2       1 LNB1        0.0000
     82 H10A       -4.2620   -5.0590  -12.1640 H         1 LNB1        0.0000
     83 CA11       -3.3530   -3.3410  -11.1090 C.3       1 LNB1        0.0000
     84 H11A       -2.3320   -3.4300  -11.5400 H         1 LNB1        0.0000
     85 H11B       -3.1960   -3.0020  -10.0650 H         1 LNB1        0.0000
     86 CA12       -4.1240   -2.2990  -11.8820 C.2       1 LNB1        0.0000
     87 H12A       -3.9870   -2.3440  -12.9740 H         1 LNB1        0.0000
     88 CA13       -4.9330   -1.3480  -11.3750 C.2       1 LNB1        0.0000
     89 H13A       -5.4290   -0.6550  -12.0720 H         1 LNB1        0.0000
     90 CA14       -5.2630   -1.1060   -9.9210 C.3       1 LNB1        0.0000
     91 H14A       -4.7460   -1.8190   -9.2410 H         1 LNB1        0.0000
     92 H14B       -6.3550   -1.2530   -9.7610 H         1 LNB1        0.0000
     93 CA15       -4.9020    0.3280   -9.4890 C.3       1 LNB1        0.0000
     94 H15A       -5.3820    1.0580  -10.1800 H         1 LNB1        0.0000
     95 H15B       -3.8000    0.4730   -9.5520 H         1 LNB1        0.0000
     96 CA16       -5.3680    0.6530   -8.0610 C.3       1 LNB1        0.0000
     97 H16A       -4.8570   -0.0250   -7.3420 H         1 LNB1        0.0000
     98 H16B       -6.4620    0.4650   -7.9850 H         1 LNB1        0.0000
     99 CA17       -5.0870    2.1090   -7.6680 C.3       1 LNB1        0.0000
    100 H17A       -5.5590    2.7810   -8.4210 H         1 LNB1        0.0000
    101 H17B       -3.9880    2.2850   -7.7080 H         1 LNB1        0.0000
    102 CA18       -5.6080    2.4760   -6.2760 C.3       1 LNB1        0.0000
    103 H18A       -5.1500    1.8240   -5.5010 H         1 LNB1        0.0000
    104 H18B       -6.7110    2.3530   -6.2270 H         1 LNB1        0.0000
    105 H18C       -5.3610    3.5320   -6.0320 H         1 LNB1        0.0000
    106 CB3         1.9790   -7.2740   -1.9100 C.3       1 LNB1        0.0000
    107 H3D         2.2840   -8.3220   -1.7010 H         1 LNB1        0.0000
    108 H3E         2.2510   -6.6650   -1.0140 H         1 LNB1        0.0000
    109 CB4         2.8030   -6.6910   -3.0680 C.3       1 LNB1        0.0000
    110 H4D         3.8520   -6.5780   -2.7100 H         1 LNB1        0.0000
    111 H4E         2.4230   -5.6720   -3.3070 H         1 LNB1        0.0000
    112 CB5         2.8120   -7.5450   -4.3440 C.3       1 LNB1        0.0000
    113 H5D         1.7640   -7.7750   -4.6400 H         1 LNB1        0.0000
    114 H5E         3.3220   -8.5090   -4.1270 H         1 LNB1        0.0000
    115 CB6         3.5130   -6.8530   -5.5290 C.3       1 LNB1        0.0000
    116 H6D         2.9010   -5.9780   -5.8410 H         1 LNB1        0.0000
    117 H6E         3.5520   -7.5560   -6.3900 H         1 LNB1        0.0000
    118 CB7         4.9340   -6.3540   -5.2180 C.3       1 LNB1        0.0000
    119 H7D         5.5570   -7.2130   -4.8830 H         1 LNB1        0.0000
    120 H7E         4.8840   -5.6170   -4.3840 H         1 LNB1        0.0000
    121 CB8         5.5900   -5.6570   -6.4240 C.3       1 LNB1        0.0000
    122 H8D         4.9000   -4.8450   -6.7490 H         1 LNB1        0.0000
    123 H8E         5.6560   -6.3810   -7.2650 H         1 LNB1        0.0000
    124 CB9         6.9610   -5.1230   -6.0860 C.2       1 LNB1        0.0000
    125 H9D         7.7170   -5.8960   -5.8790 H         1 LNB1        0.0000
    126 CB10        7.3170   -3.8250   -5.9900 C.2       1 LNB1        0.0000
    127 H10D        8.3570   -3.5820   -5.7230 H         1 LNB1        0.0000
    128 CB11        6.4270   -2.6250   -6.2170 C.3       1 LNB1        0.0000
    129 H11D        5.6820   -2.8470   -7.0100 H         1 LNB1        0.0000
    130 H11E        7.0450   -1.7960   -6.6260 H         1 LNB1        0.0000
    131 CB12        5.7640   -2.1540   -4.9410 C.2       1 LNB1        0.0000
    132 H12D        6.4620   -1.9440   -4.1140 H         1 LNB1        0.0000
    133 CB13        4.4490   -1.9560   -4.7150 C.2       1 LNB1        0.0000
    134 H13D        4.1430   -1.5760   -3.7240 H         1 LNB1        0.0000
    135 CB14        3.3100   -2.1480   -5.6880 C.3       1 LNB1        0.0000
    136 H14D        3.6780   -2.5510   -6.6530 H         1 LNB1        0.0000
    137 H14E        2.8770   -1.1470   -5.9120 H         1 LNB1        0.0000
    138 CB15        2.2180   -3.0400   -5.1510 C.2       1 LNB1        0.0000
    139 H15D        2.2130   -3.2290   -4.0650 H         1 LNB1        0.0000
    140 CB16        1.2700   -3.6100   -5.9140 C.2       1 LNB1        0.0000
    141 H16D        1.2530   -3.4180   -6.9970 H         1 LNB1        0.0000
    142 CB17        0.1910   -4.5100   -5.3770 C.3       1 LNB1        0.0000
    143 H17D       -0.3430   -4.0090   -4.5370 H         1 LNB1        0.0000
    144 H17E        0.6400   -5.4380   -4.9560 H         1 LNB1        0.0000
    145 CB18       -0.8220   -4.9000   -6.4620 C.3       1 LNB1        0.0000
    146 H18D       -0.3280   -5.4510   -7.2910 H         1 LNB1        0.0000
    147 H18E       -1.3230   -4.0020   -6.8830 H         1 LNB1        0.0000
    148 H18F       -1.6080   -5.5570   -6.0290 H         1 LNB1        0.0000
    149 CC3        -1.5080    0.1300   -4.5010 C.3       1 LNB1        0.0000
    150 H3R        -1.8940    0.6210   -3.5770 H         1 LNB1        0.0000
    151 H3S        -1.9740   -0.8800   -4.5470 H         1 LNB1        0.0000
    152 CC4        -1.9650    0.9350   -5.7330 C.3       1 LNB1        0.0000
    153 H4R        -1.7050    2.0070   -5.5750 H         1 LNB1        0.0000
    154 H4S        -3.0740    0.8740   -5.7910 H         1 LNB1        0.0000
    155 CC5        -1.3720    0.4850   -7.0790 C.3       1 LNB1        0.0000
    156 H5R        -0.2750    0.6660   -7.0680 H         1 LNB1        0.0000
    157 H5S        -1.8060    1.1170   -7.8860 H         1 LNB1        0.0000
    158 CC6        -1.6520   -0.9890   -7.4040 C.3       1 LNB1        0.0000
    159 H6R        -2.7480   -1.1620   -7.3250 H         1 LNB1        0.0000
    160 H6S        -1.1520   -1.6290   -6.6430 H         1 LNB1        0.0000
    161 CC7        -1.1840   -1.4290   -8.8000 C.3       1 LNB1        0.0000
    162 H7R        -1.8340   -0.9520   -9.5690 H         1 LNB1        0.0000
    163 H7S        -1.3320   -2.5320   -8.8680 H         1 LNB1        0.0000
    164 CC8         0.2870   -1.0870   -9.0950 C.3       1 LNB1        0.0000
    165 H8R         0.8850   -1.3870   -8.2060 H         1 LNB1        0.0000
    166 H8S         0.3870    0.0170   -9.1900 H         1 LNB1        0.0000
    167 CC9         0.7610   -1.7520  -10.3640 C.2       1 LNB1        0.0000
    168 H9R         0.1020   -1.5980  -11.2320 H         1 LNB1        0.0000
    169 CC10        1.8590   -2.5170  -10.5200 C.2       1 LNB1        0.0000
    170 H10R        2.0630   -2.9430  -11.5150 H         1 LNB1        0.0000
    171 CC11        2.8940   -2.8560   -9.4770 C.3       1 LNB1        0.0000
    172 H11R        2.6510   -2.3910   -8.5020 H         1 LNB1        0.0000
    173 H11S        3.8610   -2.4000   -9.7730 H         1 LNB1        0.0000
    174 CC12        3.0180   -4.3480   -9.2890 C.2       1 LNB1        0.0000
    175 H12R        2.1270   -4.8250   -8.8500 H         1 LNB1        0.0000
    176 CC13        4.0780   -5.1250   -9.5830 C.2       1 LNB1        0.0000
    177 H13R        4.0090   -6.2050   -9.3800 H         1 LNB1        0.0000
    178 CC14        5.3940   -4.6880  -10.1800 C.3       1 LNB1        0.0000
    179 H14R        6.1990   -4.8110   -9.4200 H         1 LNB1        0.0000
    180 H14S        5.3930   -3.6160  -10.4700 H         1 LNB1        0.0000
    181 CC15        5.7880   -5.5050  -11.4270 C.3       1 LNB1        0.0000
    182 H15R        5.8420   -6.5870  -11.1730 H         1 LNB1        0.0000
    183 H15S        6.8090   -5.1870  -11.7380 H         1 LNB1        0.0000
    184 CC16        4.8430   -5.3110  -12.6250 C.3       1 LNB1        0.0000
    185 H16R        4.7540   -4.2250  -12.8490 H         1 LNB1        0.0000
    186 H16S        3.8290   -5.6850  -12.3640 H         1 LNB1        0.0000
    187 CC17        5.3410   -6.0390  -13.8810 C.3       1 LNB1        0.0000
    188 H17R        5.4750   -7.1180  -13.6410 H         1 LNB1        0.0000
    189 H17S        6.3410   -5.6320  -14.1530 H         1 LNB1        0.0000
    190 CC18        4.4010   -5.9060  -15.0820 C.3       1 LNB1        0.0000
    191 H18R        4.2260   -4.8360  -15.3250 H         1 LNB1        0.0000
    192 H18S        3.4190   -6.3770  -14.8620 H         1 LNB1        0.0000
    193 H18T        4.8350   -6.4030  -15.9760 H         1 LNB1        0.0000
    194 CD3         6.4000    0.4260   -8.9610 C.3       1 LNB1        0.0000
    195 H3X         7.2630    0.0090   -8.3910 H         1 LNB1        0.0000
    196 H3Y         6.6670    1.4640   -9.2620 H         1 LNB1        0.0000
    197 CD4         6.2090   -0.4400  -10.2180 C.3       1 LNB1        0.0000
    198 H4X         6.0360   -1.4910   -9.8940 H         1 LNB1        0.0000
    199 H4Y         7.1470   -0.4260  -10.8160 H         1 LNB1        0.0000
    200 CD5         5.0400    0.0030  -11.1110 C.3       1 LNB1        0.0000
    201 H5X         5.2190    1.0390  -11.4750 H         1 LNB1        0.0000
    202 H5Y         4.1020    0.0120  -10.5110 H         1 LNB1        0.0000
    203 CD6         4.8170   -0.9310  -12.3100 C.3       1 LNB1        0.0000
    204 H6X         4.7080   -1.9700  -11.9270 H         1 LNB1        0.0000
    205 H6Y         5.7060   -0.9100  -12.9770 H         1 LNB1        0.0000
    206 CD7         3.5500   -0.5720  -13.1020 C.3       1 LNB1        0.0000
    207 H7X         3.6990    0.3840  -13.6500 H         1 LNB1        0.0000
    208 H7Y         2.7290   -0.4020  -12.3670 H         1 LNB1        0.0000
    209 CD8         3.0850   -1.6860  -14.0610 C.3       1 LNB1        0.0000
    210 H8X         2.0390   -1.4500  -14.3570 H         1 LNB1        0.0000
    211 H8Y         3.0450   -2.6430  -13.4960 H         1 LNB1        0.0000
    212 CD9         3.9790   -1.8450  -15.2650 C.2       1 LNB1        0.0000
    213 H9X         5.0560   -1.7510  -15.0550 H         1 LNB1        0.0000
    214 CD10        3.5850   -2.0860  -16.5310 C.2       1 LNB1        0.0000
    215 H10X        4.3580   -2.1800  -17.3100 H         1 LNB1        0.0000
    216 CD11        2.1690   -2.2660  -17.0270 C.3       1 LNB1        0.0000
    217 H11X        2.0330   -1.6780  -17.9610 H         1 LNB1        0.0000
    218 H11Y        1.4340   -1.8340  -16.3150 H         1 LNB1        0.0000
    219 CD12        1.8600   -3.7180  -17.3060 C.2       1 LNB1        0.0000
    220 H12X        2.3460   -4.1180  -18.2100 H         1 LNB1        0.0000
    221 CD13        1.0690   -4.5450  -16.5920 C.2       1 LNB1        0.0000
    222 H13X        0.9570   -5.5840  -16.9370 H         1 LNB1        0.0000
    223 CD14        0.3100   -4.2320  -15.3240 C.3       1 LNB1        0.0000
    224 H14X       -0.7730   -4.4390  -15.4770 H         1 LNB1        0.0000
    225 H14Y        0.3940   -3.1620  -15.0310 H         1 LNB1        0.0000
    226 CD15        0.8080   -5.0900  -14.1470 C.3       1 LNB1        0.0000
    227 H15X        1.8630   -4.8170  -13.9150 H         1 LNB1        0.0000
    228 H15Y        0.7910   -6.1670  -14.4300 H         1 LNB1        0.0000
    229 CD16       -0.0390   -4.9170  -12.8770 C.3       1 LNB1        0.0000
    230 H16X       -1.0950   -5.1880  -13.1000 H         1 LNB1        0.0000
    231 H16Y       -0.0220   -3.8490  -12.5680 H         1 LNB1        0.0000
    232 CD17        0.4680   -5.7870  -11.7190 C.3       1 LNB1        0.0000
    233 H17X        1.5280   -5.5180  -11.5120 H         1 LNB1        0.0000
    234 H17Y        0.4540   -6.8530  -12.0400 H         1 LNB1        0.0000
    235 CD18       -0.3500   -5.6400  -10.4330 C.3       1 LNB1        0.0000
    236 H18X       -1.4030   -5.9490  -10.6040 H         1 LNB1        0.0000
    237 H18Y       -0.3480   -4.5850  -10.0860 H         1 LNB1        0.0000
    238 H18Z        0.0730   -6.2750   -9.6260 H         1 LNB1        0.0000
@<TRIPOS>BOND
     1  220  219 1 
     2  217  216 1 
     3  215  214 1 
     4  219  216 1 
     5  219  221 2 
     6  216  214 1 
     7  216  218 1 
     8  222  221 1 
     9  221  223 1 
    10  214  212 2 
    11  193  190 1 
    12  224  223 1 
    13  191  190 1 
    14  223  225 1 
    15  223  226 1 
    16  212  213 1 
    17  212  209 1 
    18  190  192 1 
    19  190  187 1 
    20  228  226 1 
    21  210  209 1 
    22  189  187 1 
    23  226  227 1 
    24  226  229 1 
    25  209  211 1 
    26  209  206 1 
    27  187  188 1 
    28  187  184 1 
    29  207  206 1 
    30  206  208 1 
    31  206  203 1 
    32  230  229 1 
    33  205  203 1 
    34   87   86 1 
    35  229  231 1 
    36  229  232 1 
    37  185  184 1 
    38  184  186 1 
    39  184  181 1 
    40  203  204 1 
    41  203  200 1 
    42   82   81 1 
    43   89   88 1 
    44  234  232 1 
    45   86   88 2 
    46   86   83 1 
    47  183  181 1 
    48  232  233 1 
    49  232  235 1 
    50   84   83 1 
    51  170  169 1 
    52  201  200 1 
    53  181  182 1 
    54  181  178 1 
    55   88   90 1 
    56  168  167 1 
    57   81   83 1 
    58   81   79 2 
    59  200  202 1 
    60  200  197 1 
    61   83   85 1 
    62  199  197 1 
    63  236  235 1 
    64  169  167 2 
    65  169  171 1 
    66  180  178 1 
    67  235  237 1 
    68  235  238 1 
    69  167  164 1 
    70   80   79 1 
    71  197  198 1 
    72  197  194 1 
    73  178  176 1 
    74  178  179 1 
    75   94   93 1 
    76   79   76 1 
    77   90   92 1 
    78   90   93 1 
    79   90   91 1 
    80  173  171 1 
    81  176  177 1 
    82  176  174 2 
    83  162  161 1 
    84   95   93 1 
    85   93   96 1 
    86  171  174 1 
    87  171  172 1 
    88  174  175 1 
    89  196  194 1 
    90  166  164 1 
    91  164  161 1 
    92  164  165 1 
    93  194  195 1 
    94  194   58 1 
    95  163  161 1 
    96  161  158 1 
    97   76   78 1 
    98   76   77 1 
    99   76   73 1 
   100   59   58 1 
   101   74   73 1 
   102  100   99 1 
   103   96   98 1 
   104   96   99 1 
   105   96   97 1 
   106   58   60 1 
   107   58   56 1 
   108   75   73 1 
   109   73   70 1 
   110  157  155 1 
   111  101   99 1 
   112   99  102 1 
   113  158  159 1 
   114  158  155 1 
   115  158  160 1 
   116  146  145 1 
   117  123  121 1 
   118  155  156 1 
   119  155  152 1 
   120  129  128 1 
   121  141  140 1 
   122  147  145 1 
   123   69   67 1 
   124  122  121 1 
   125   68   67 1 
   126   56   57 2 
   127   56   55 1 
   128  136  135 1 
   129  130  128 1 
   130  145  148 1 
   131  145  142 1 
   132   70   67 1 
   133   70   71 1 
   134   70   72 1 
   135  121  124 1 
   136  121  118 1 
   137  117  115 1 
   138  102  104 1 
   139  102  105 1 
   140  102  103 1 
   141   67   64 1 
   142  128  126 1 
   143  128  131 1 
   144   55   52 1 
   145  124  126 2 
   146  124  125 1 
   147  126  127 1 
   148  140  142 1 
   149  140  138 2 
   150  137  135 1 
   151  116  115 1 
   152  154  152 1 
   153  152  153 1 
   154  152  149 1 
   155  135  138 1 
   156  135  133 1 
   157  115  118 1 
   158  115  112 1 
   159  142  144 1 
   160  142  143 1 
   161   51   49 1 
   162  118  119 1 
   163  118  120 1 
   164  138  139 1 
   165  131  133 2 
   166  131  132 1 
   167   64   65 1 
   168   64   66 1 
   169   64   61 1 
   170   45   44 1 
   171   52   54 1 
   172   52   44 1 
   173   52   53 1 
   174  133  134 1 
   175  113  112 1 
   176   63   61 1 
   177  151  149 1 
   178  149   49 1 
   179  149  150 1 
   180   49   47 1 
   181   49   50 1 
   182  112  114 1 
   183  112  109 1 
   184   46   47 1 
   185   46   44 1 
   186   47   48 2 
   187   44    9 1 
   188   61   62 1 
   189   61   32 1 
   190  111  109 1 
   191  109  110 1 
   192  109  106 1 
   193   43   41 1 
   194   42   41 1 
   195    9   10 1 
   196    9   11 1 
   197    9    8 1 
   198   32   33 1 
   199   32   34 1 
   200   32   30 1 
   201   41  106 1 
   202   41   39 1 
   203   31   30 2 
   204  106  107 1 
   205  106  108 1 
   206    8    4 1 
   207   30   29 1 
   208   14   15 1 
   209   14   12 1 
   210   18   16 1 
   211   38   39 1 
   212   38   35 1 
   213    3    1 1 
   214   39   40 2 
   215   29   27 1 
   216    4    7 1 
   217    4    6 2 
   218    4    5 1 
   219   16   12 1 
   220   16   22 1 
   221   16   17 1 
   222   36   35 1 
   223    7    1 1 
   224   12    1 1 
   225   12   13 1 
   226    1    2 1 
   227   35   27 1 
   228   35   37 1 
   229   22   19 1 
   230   28   27 1 
   231   27   24 1 
   232   21   19 2 
   233   19   23 1 
   234   19   20 1 
   235   24   25 1 
   236   24   23 1 
   237   24   26 1 
