@<TRIPOS>MOLECULE
C:\Users\Praveer\PycharmProjects\pdb_to_mol2_converter\data\pdb\lnccl2.pdb
  238   237     0     0     0
SMALL
GASTEIGER

@<TRIPOS>ATOM
      1 C3          1.5440   -0.0260   -0.0080 C.3       1 LNC1        0.0000
      2 HG31        1.8970   -0.5670    0.9000 H         1 LNC1        0.0000
      3 HG32        1.8820   -0.5950   -0.9080 H         1 LNC1        0.0000
      4 P3          3.6050    1.5290   -0.3050 P.3       1 LNC1        0.0000
      5 OP33        4.3800    0.4080    0.2700 O.3       1 LNC1        0.0000
      6 OP34        3.9890    2.9060    0.0720 O.2       1 LNC1        0.0000
      7 OP31        2.0540    1.3170   -0.0170 O.3       1 LNC1        0.0000
      8 OP32        3.6420    1.4190   -1.8890 O.3       1 LNC1        0.0000
      9 C31         3.0560    2.4840   -2.6470 C.3       1 LNC1        0.0000
     10 H31J        3.6890    3.3980   -2.5670 H         1 LNC1        0.0000
     11 H31K        2.0370    2.7430   -2.2730 H         1 LNC1        0.0000
     12 C2         -0.0070   -0.0460   -0.0100 C.3       1 LNC1        0.0000
     13 HG22       -0.3740    0.4470    0.9200 H         1 LNC1        0.0000
     14 OG12       -0.4180    0.7130   -1.1380 O.3       1 LNC1        0.0000
     15 HO12        0.2420    1.4180   -1.1310 H         1 LNC1        0.0000
     16 C1         -0.5810   -1.4910   -0.0700 C.3       1 LNC1        0.0000
     17 HG11       -0.0360   -2.1160    0.6760 H         1 LNC1        0.0000
     18 HG12       -0.3360   -1.9030   -1.0740 H         1 LNC1        0.0000
     19 P1         -2.6270   -1.7720    1.5660 P.3       1 LNC1        0.0000
     20 OP13       -2.1530   -0.7180    2.4860 O.3       1 LNC1        0.0000
     21 OP14       -4.0910   -1.9630    1.4410 O.2       1 LNC1        0.0000
     22 OP11       -2.0010   -1.5430    0.1250 O.3       1 LNC1        0.0000
     23 OP12       -1.9640   -3.1490    2.0030 O.3       1 LNC1        0.0000
     24 C11        -2.5520   -4.4140    1.6960 C.3       1 LNC1        0.0000
     25 H11J       -3.6630   -4.3970    1.7890 H         1 LNC1        0.0000
     26 H11K       -2.1690   -5.1460    2.4400 H         1 LNC1        0.0000
     27 C12        -2.1470   -4.9120    0.2850 C.3       1 LNC1        0.0000
     28 H12J       -1.0610   -4.6690    0.1770 H         1 LNC1        0.0000
     29 O12        -2.9680   -4.2270   -0.6720 O.3       1 LNC1        0.0000
     30 CA1        -2.3620   -3.8560   -1.7810 C.2       1 LNC1        0.0000
     31 OA1        -1.2450   -4.1920   -2.1370 O.2       1 LNC1        0.0000
     32 CA2        -3.2940   -2.9400   -2.5780 C.3       1 LNC1        0.0000
     33 H2A        -2.8490   -1.9230   -2.5510 H         1 LNC1        0.0000
     34 H2B        -4.2780   -2.8960   -2.0660 H         1 LNC1        0.0000
     35 C13        -2.3420   -6.4450    0.1120 C.3       1 LNC1        0.0000
     36 H13J       -3.4300   -6.6250   -0.0430 H         1 LNC1        0.0000
     37 H13K       -2.0620   -6.9700    1.0540 H         1 LNC1        0.0000
     38 O13        -1.6100   -6.9420   -1.0340 O.3       1 LNC1        0.0000
     39 CB1        -0.3110   -7.1260   -0.7930 C.2       1 LNC1        0.0000
     40 OB1         0.1930   -7.1850    0.3130 O.2       1 LNC1        0.0000
     41 CB2         0.4560   -7.2020   -2.1160 C.3       1 LNC1        0.0000
     42 H2D         0.2330   -6.2560   -2.6580 H         1 LNC1        0.0000
     43 H2E         0.0750   -8.0530   -2.7130 H         1 LNC1        0.0000
     44 C32         2.9560    2.0930   -4.1460 C.3       1 LNC1        0.0000
     45 H32J        2.5730    2.9710   -4.7180 H         1 LNC1        0.0000
     46 O32         2.0910    0.9550   -4.3250 O.3       1 LNC1        0.0000
     47 CC1         0.8020    1.2380   -4.2100 C.2       1 LNC1        0.0000
     48 OC1         0.3330    2.3530   -4.0750 O.2       1 LNC1        0.0000
     49 CC2         0.0200   -0.0680   -4.3690 C.3       1 LNC1        0.0000
     50 H2R         0.2250   -0.6800   -3.4630 H         1 LNC1        0.0000
     51 H2S         0.4200   -0.6080   -5.2490 H         1 LNC1        0.0000
     52 C33         4.3540    1.7620   -4.7310 C.3       1 LNC1        0.0000
     53 H33J        4.7840    0.9360   -4.1170 H         1 LNC1        0.0000
     54 H33K        5.0030    2.6600   -4.6150 H         1 LNC1        0.0000
     55 O33         4.2410    1.3700   -6.1170 O.3       1 LNC1        0.0000
     56 CD1         5.4010    1.0620   -6.6790 C.2       1 LNC1        0.0000
     57 OD1         6.4990    1.2240   -6.1810 O.2       1 LNC1        0.0000
     58 CD2         5.1300    0.4510   -8.0550 C.3       1 LNC1        0.0000
     59 H2X         4.3170    1.0290   -8.5390 H         1 LNC1        0.0000
     60 H2Y         4.7710   -0.5860   -7.8830 H         1 LNC1        0.0000
     61 CA3        -3.4660   -3.4270   -4.0310 C.3       1 LNC1        0.0000
     62 H3A        -3.7800   -4.4950   -4.0290 H         1 LNC1        0.0000
     63 H3B        -2.4870   -3.3610   -4.5560 H         1 LNC1        0.0000
     64 CA4        -4.5010   -2.6060   -4.8120 C.3       1 LNC1        0.0000
     65 H4A        -4.1910   -1.5360   -4.7850 H         1 LNC1        0.0000
     66 H4B        -5.4900   -2.6790   -4.3090 H         1 LNC1        0.0000
     67 CA5        -4.6340   -3.0450   -6.2780 C.3       1 LNC1        0.0000
     68 H5A        -3.6250   -3.0430   -6.7430 H         1 LNC1        0.0000
     69 H5B        -5.2590   -2.2980   -6.8170 H         1 LNC1        0.0000
     70 CA6        -5.2780   -4.4280   -6.4580 C.3       1 LNC1        0.0000
     71 H6A        -6.2760   -4.4100   -5.9650 H         1 LNC1        0.0000
     72 H6B        -4.6670   -5.2070   -5.9520 H         1 LNC1        0.0000
     73 CA7        -5.4640   -4.8150   -7.9350 C.3       1 LNC1        0.0000
     74 H7A        -5.9680   -3.9720   -8.4590 H         1 LNC1        0.0000
     75 H7B        -6.1430   -5.6970   -7.9840 H         1 LNC1        0.0000
     76 CA8        -4.1430   -5.1650   -8.6470 C.3       1 LNC1        0.0000
     77 H8A        -3.6940   -6.0490   -8.1440 H         1 LNC1        0.0000
     78 H8B        -3.4250   -4.3310   -8.5010 H         1 LNC1        0.0000
     79 CA9        -4.3700   -5.4620  -10.1100 C.2       1 LNC1        0.0000
     80 H9A        -4.8810   -6.4170  -10.3080 H         1 LNC1        0.0000
     81 CA10       -4.0300   -4.6840  -11.1580 C.2       1 LNC1        0.0000
     82 H10A       -4.2610   -5.0470  -12.1720 H         1 LNC1        0.0000
     83 CA11       -3.3460   -3.3370  -11.1080 C.3       1 LNC1        0.0000
     84 H11A       -2.3220   -3.4290  -11.5310 H         1 LNC1        0.0000
     85 H11B       -3.1970   -3.0000  -10.0620 H         1 LNC1        0.0000
     86 CA12       -4.1080   -2.2920  -11.8870 C.2       1 LNC1        0.0000
     87 H12A       -3.9610   -2.3330  -12.9780 H         1 LNC1        0.0000
     88 CA13       -4.9240   -1.3430  -11.3850 C.2       1 LNC1        0.0000
     89 H13A       -5.4120   -0.6460  -12.0840 H         1 LNC1        0.0000
     90 CA14       -5.2690   -1.1060   -9.9320 C.3       1 LNC1        0.0000
     91 H14A       -4.7600   -1.8220   -9.2500 H         1 LNC1        0.0000
     92 H14B       -6.3620   -1.2530   -9.7840 H         1 LNC1        0.0000
     93 CA15       -4.9120    0.3270   -9.4920 C.3       1 LNC1        0.0000
     94 H15A       -5.3850    1.0570  -10.1860 H         1 LNC1        0.0000
     95 H15B       -3.8090    0.4710   -9.5460 H         1 LNC1        0.0000
     96 CA16       -5.3870    0.6530   -8.0670 C.3       1 LNC1        0.0000
     97 H16A       -4.8870   -0.0290   -7.3440 H         1 LNC1        0.0000
     98 H16B       -6.4830    0.4720   -8.0000 H         1 LNC1        0.0000
     99 CA17       -5.1010    2.1060   -7.6650 C.3       1 LNC1        0.0000
    100 H17A       -5.5680    2.7860   -8.4140 H         1 LNC1        0.0000
    101 H17B       -4.0020    2.2790   -7.6990 H         1 LNC1        0.0000
    102 CA18       -5.6250    2.4660   -6.2710 C.3       1 LNC1        0.0000
    103 H18A       -5.1700    1.8090   -5.5000 H         1 LNC1        0.0000
    104 H18B       -6.7280    2.3440   -6.2260 H         1 LNC1        0.0000
    105 H18C       -5.3770    3.5200   -6.0210 H         1 LNC1        0.0000
    106 CB3         1.9850   -7.3060   -1.8960 C.3       1 LNC1        0.0000
    107 H3D         2.2860   -8.3580   -1.7000 H         1 LNC1        0.0000
    108 H3E         2.2680   -6.7070   -0.9970 H         1 LNC1        0.0000
    109 CB4         2.8070   -6.7180   -3.0530 C.3       1 LNC1        0.0000
    110 H4D         3.8590   -6.6080   -2.7030 H         1 LNC1        0.0000
    111 H4E         2.4240   -5.6970   -3.2750 H         1 LNC1        0.0000
    112 CB5         2.8030   -7.5610   -4.3360 C.3       1 LNC1        0.0000
    113 H5D         1.7520   -7.7940   -4.6190 H         1 LNC1        0.0000
    114 H5E         3.3190   -8.5250   -4.1290 H         1 LNC1        0.0000
    115 CB6         3.4870   -6.8640   -5.5280 C.3       1 LNC1        0.0000
    116 H6D         2.8620   -5.9970   -5.8380 H         1 LNC1        0.0000
    117 H6E         3.5260   -7.5690   -6.3880 H         1 LNC1        0.0000
    118 CB7         4.9050   -6.3470   -5.2280 C.3       1 LNC1        0.0000
    119 H7D         5.5370   -7.1980   -4.8910 H         1 LNC1        0.0000
    120 H7E         4.8490   -5.6100   -4.3940 H         1 LNC1        0.0000
    121 CB8         5.5540   -5.6400   -6.4330 C.3       1 LNC1        0.0000
    122 H8D         4.8690   -4.8180   -6.7410 H         1 LNC1        0.0000
    123 H8E         5.6080   -6.3530   -7.2850 H         1 LNC1        0.0000
    124 CB9         6.9320   -5.1240   -6.0930 C.2       1 LNC1        0.0000
    125 H9D         7.6790   -5.9080   -5.8910 H         1 LNC1        0.0000
    126 CB10        7.3090   -3.8320   -5.9940 C.2       1 LNC1        0.0000
    127 H10D        8.3520   -3.6090   -5.7180 H         1 LNC1        0.0000
    128 CB11        6.4470   -2.6130   -6.2250 C.3       1 LNC1        0.0000
    129 H11D        5.6860   -2.8270   -7.0060 H         1 LNC1        0.0000
    130 H11E        7.0800   -1.8080   -6.6600 H         1 LNC1        0.0000
    131 CB12        5.8170   -2.0950   -4.9510 C.2       1 LNC1        0.0000
    132 H12D        6.5360   -1.8270   -4.1590 H         1 LNC1        0.0000
    133 CB13        4.5070   -1.8940   -4.7030 C.2       1 LNC1        0.0000
    134 H13D        4.2110   -1.4920   -3.7180 H         1 LNC1        0.0000
    135 CB14        3.3500   -2.1660   -5.6320 C.3       1 LNC1        0.0000
    136 H14D        3.6850   -2.6280   -6.5830 H         1 LNC1        0.0000
    137 H14E        2.8400   -1.2110   -5.8920 H         1 LNC1        0.0000
    138 CB15        2.3210   -3.1150   -4.9900 C.3       1 LNC1        0.0000
    139 H15D        1.8490   -2.6180   -4.1120 H         1 LNC1        0.0000
    140 H15E        2.8450   -4.0250   -4.6240 H         1 LNC1        0.0000
    141 CB16        1.2290   -3.5500   -5.9780 C.3       1 LNC1        0.0000
    142 H16D        1.7080   -4.0660   -6.8360 H         1 LNC1        0.0000
    143 H16E        0.7150   -2.6480   -6.3690 H         1 LNC1        0.0000
    144 CB17        0.1860   -4.4900   -5.3620 C.3       1 LNC1        0.0000
    145 H17D       -0.3050   -3.9650   -4.5110 H         1 LNC1        0.0000
    146 H17E        0.7010   -5.3820   -4.9400 H         1 LNC1        0.0000
    147 CB18       -0.8760   -4.9470   -6.3660 C.3       1 LNC1        0.0000
    148 H18D       -0.4070   -5.5110   -7.2010 H         1 LNC1        0.0000
    149 H18E       -1.4090   -4.0700   -6.7920 H         1 LNC1        0.0000
    150 H18F       -1.6240   -5.6030   -5.8700 H         1 LNC1        0.0000
    151 CC3        -1.5090    0.1330   -4.4980 C.3       1 LNC1        0.0000
    152 H3R        -1.8950    0.6200   -3.5720 H         1 LNC1        0.0000
    153 H3S        -1.9730   -0.8770   -4.5480 H         1 LNC1        0.0000
    154 CC4        -1.9700    0.9410   -5.7270 C.3       1 LNC1        0.0000
    155 H4R        -1.7110    2.0130   -5.5660 H         1 LNC1        0.0000
    156 H4S        -3.0790    0.8770   -5.7850 H         1 LNC1        0.0000
    157 CC5        -1.3750    0.4970   -7.0740 C.3       1 LNC1        0.0000
    158 H5R        -0.2750    0.6580   -7.0490 H         1 LNC1        0.0000
    159 H5S        -1.7880    1.1470   -7.8770 H         1 LNC1        0.0000
    160 CC6        -1.6790   -0.9670   -7.4210 C.3       1 LNC1        0.0000
    161 H6R        -2.7790   -1.1190   -7.3750 H         1 LNC1        0.0000
    162 H6S        -1.2180   -1.6240   -6.6510 H         1 LNC1        0.0000
    163 CC7        -1.1820   -1.4070   -8.8090 C.3       1 LNC1        0.0000
    164 H7R        -1.8220   -0.9350   -9.5880 H         1 LNC1        0.0000
    165 H7S        -1.3200   -2.5110   -8.8770 H         1 LNC1        0.0000
    166 CC8         0.2920   -1.0540   -9.0850 C.3       1 LNC1        0.0000
    167 H8R         0.8860   -1.3600   -8.1970 H         1 LNC1        0.0000
    168 H8S         0.3890    0.0500   -9.1680 H         1 LNC1        0.0000
    169 CC9         0.7740   -1.7090  -10.3550 C.2       1 LNC1        0.0000
    170 H9R         0.1330   -1.5230  -11.2320 H         1 LNC1        0.0000
    171 CC10        1.8560   -2.4980  -10.5040 C.2       1 LNC1        0.0000
    172 H10R        2.0620   -2.9120  -11.5040 H         1 LNC1        0.0000
    173 CC11        2.8650   -2.8830   -9.4490 C.3       1 LNC1        0.0000
    174 H11R        2.5910   -2.4710   -8.4570 H         1 LNC1        0.0000
    175 H11S        3.8380   -2.4130   -9.7010 H         1 LNC1        0.0000
    176 CC12        2.9870   -4.3840   -9.3330 C.2       1 LNC1        0.0000
    177 H12R        2.0880   -4.8770   -8.9310 H         1 LNC1        0.0000
    178 CC13        4.0400   -5.1560   -9.6680 C.2       1 LNC1        0.0000
    179 H13R        3.9520   -6.2450   -9.5180 H         1 LNC1        0.0000
    180 CC14        5.3640   -4.7020  -10.2410 C.3       1 LNC1        0.0000
    181 H14R        6.1590   -4.8690   -9.4800 H         1 LNC1        0.0000
    182 H14S        5.3720   -3.6070  -10.4370 H         1 LNC1        0.0000
    183 CC15        5.7310   -5.4320  -11.5100 C.2       1 LNC1        0.0000
    184 H15R        6.5790   -6.1330  -11.4380 H         1 LNC1        0.0000
    185 CC16        5.1210   -5.2670  -12.6980 C.2       1 LNC1        0.0000
    186 H16R        4.2840   -4.5560  -12.7840 H         1 LNC1        0.0000
    187 CC17        5.5080   -5.9850  -13.9640 C.3       1 LNC1        0.0000
    188 H17R        5.7860   -7.0410  -13.7460 H         1 LNC1        0.0000
    189 H17S        6.4060   -5.5020  -14.4090 H         1 LNC1        0.0000
    190 CC18        4.3830   -5.9730  -15.0110 C.3       1 LNC1        0.0000
    191 H18R        4.1160   -4.9320  -15.2990 H         1 LNC1        0.0000
    192 H18S        3.4740   -6.4900  -14.6360 H         1 LNC1        0.0000
    193 H18T        4.7120   -6.5000  -15.9310 H         1 LNC1        0.0000
    194 CD3         6.3850    0.4200   -8.9580 C.3       1 LNC1        0.0000
    195 H3X         7.2480    0.0110   -8.3830 H         1 LNC1        0.0000
    196 H3Y         6.6490    1.4560   -9.2660 H         1 LNC1        0.0000
    197 CD4         6.2000   -0.4530  -10.2100 C.3       1 LNC1        0.0000
    198 H4X         6.0330   -1.5040   -9.8850 H         1 LNC1        0.0000
    199 H4Y         7.1390   -0.4340  -10.8080 H         1 LNC1        0.0000
    200 CD5         5.0300   -0.0160  -11.1050 C.3       1 LNC1        0.0000
    201 H5X         5.2050    1.0220  -11.4630 H         1 LNC1        0.0000
    202 H5Y         4.0910   -0.0140  -10.5060 H         1 LNC1        0.0000
    203 CD6         4.8160   -0.9500  -12.3050 C.3       1 LNC1        0.0000
    204 H6X         4.7130   -1.9890  -11.9190 H         1 LNC1        0.0000
    205 H6Y         5.7070   -0.9230  -12.9670 H         1 LNC1        0.0000
    206 CD7         3.5470   -0.6080  -13.1040 C.3       1 LNC1        0.0000
    207 H7X         3.6890    0.3430  -13.6610 H         1 LNC1        0.0000
    208 H7Y         2.7240   -0.4360  -12.3730 H         1 LNC1        0.0000
    209 CD8         3.0930   -1.7330  -14.0550 C.3       1 LNC1        0.0000
    210 H8X         2.0450   -1.5080  -14.3510 H         1 LNC1        0.0000
    211 H8Y         3.0630   -2.6880  -13.4890 H         1 LNC1        0.0000
    212 CD9         3.9900   -1.8790  -15.2590 C.2       1 LNC1        0.0000
    213 H9X         5.0660   -1.7890  -15.0460 H         1 LNC1        0.0000
    214 CD10        3.5960   -2.0950  -16.5300 C.2       1 LNC1        0.0000
    215 H10X        4.3700   -2.1740  -17.3100 H         1 LNC1        0.0000
    216 CD11        2.1780   -2.2620  -17.0280 C.3       1 LNC1        0.0000
    217 H11X        2.0480   -1.6720  -17.9620 H         1 LNC1        0.0000
    218 H11Y        1.4460   -1.8240  -16.3170 H         1 LNC1        0.0000
    219 CD12        1.8610   -3.7130  -17.3060 C.2       1 LNC1        0.0000
    220 H12X        2.3490   -4.1180  -18.2070 H         1 LNC1        0.0000
    221 CD13        1.0640   -4.5330  -16.5910 C.2       1 LNC1        0.0000
    222 H13X        0.9440   -5.5720  -16.9360 H         1 LNC1        0.0000
    223 CD14        0.3050   -4.2130  -15.3240 C.3       1 LNC1        0.0000
    224 H14X       -0.7790   -4.4100  -15.4770 H         1 LNC1        0.0000
    225 H14Y        0.3980   -3.1450  -15.0300 H         1 LNC1        0.0000
    226 CD15        0.7990   -5.0770  -14.1480 C.3       1 LNC1        0.0000
    227 H15X        1.8550   -4.8100  -13.9170 H         1 LNC1        0.0000
    228 H15Y        0.7770   -6.1530  -14.4350 H         1 LNC1        0.0000
    229 CD16       -0.0440   -4.9080  -12.8750 C.3       1 LNC1        0.0000
    230 H16X       -1.1020   -5.1730  -13.0950 H         1 LNC1        0.0000
    231 H16Y       -0.0210   -3.8420  -12.5580 H         1 LNC1        0.0000
    232 CD17        0.4570   -5.7880  -11.7210 C.3       1 LNC1        0.0000
    233 H17X        1.5210   -5.5320  -11.5160 H         1 LNC1        0.0000
    234 H17Y        0.4310   -6.8540  -12.0440 H         1 LNC1        0.0000
    235 CD18       -0.3570   -5.6370  -10.4320 C.3       1 LNC1        0.0000
    236 H18X       -1.4130   -5.9350  -10.6020 H         1 LNC1        0.0000
    237 H18Y       -0.3430   -4.5830  -10.0810 H         1 LNC1        0.0000
    238 H18Z        0.0610   -6.2790   -9.6270 H         1 LNC1        0.0000
@<TRIPOS>BOND
     1  220  219 1 
     2  217  216 1 
     3  215  214 1 
     4  219  216 1 
     5  219  221 2 
     6  216  214 1 
     7  216  218 1 
     8  222  221 1 
     9  221  223 1 
    10  214  212 2 
    11  193  190 1 
    12  224  223 1 
    13  223  225 1 
    14  223  226 1 
    15  191  190 1 
    16  212  213 1 
    17  212  209 1 
    18  190  192 1 
    19  190  187 1 
    20  228  226 1 
    21  189  187 1 
    22  210  209 1 
    23  226  227 1 
    24  226  229 1 
    25  209  211 1 
    26  209  206 1 
    27  187  188 1 
    28  187  185 1 
    29  207  206 1 
    30  206  208 1 
    31  206  203 1 
    32  230  229 1 
    33   87   86 1 
    34  205  203 1 
    35  229  231 1 
    36  229  232 1 
    37  186  185 1 
    38  185  183 2 
    39  203  204 1 
    40  203  200 1 
    41   82   81 1 
    42   89   88 1 
    43  234  232 1 
    44   86   88 2 
    45   86   83 1 
    46  232  233 1 
    47  232  235 1 
    48   84   83 1 
    49  183  184 1 
    50  183  180 1 
    51  172  171 1 
    52  201  200 1 
    53   88   90 1 
    54  170  169 1 
    55   81   83 1 
    56   81   79 2 
    57   83   85 1 
    58  200  202 1 
    59  200  197 1 
    60  199  197 1 
    61  236  235 1 
    62  171  169 2 
    63  171  173 1 
    64  182  180 1 
    65  235  237 1 
    66  235  238 1 
    67  169  166 1 
    68   80   79 1 
    69  180  178 1 
    70  180  181 1 
    71  197  198 1 
    72  197  194 1 
    73   94   93 1 
    74   79   76 1 
    75   90   92 1 
    76   90   93 1 
    77   90   91 1 
    78  175  173 1 
    79  178  179 1 
    80  178  176 2 
    81  164  163 1 
    82   95   93 1 
    83   93   96 1 
    84  173  176 1 
    85  173  174 1 
    86  176  177 1 
    87  196  194 1 
    88  168  166 1 
    89  166  163 1 
    90  166  167 1 
    91  194  195 1 
    92  194   58 1 
    93  165  163 1 
    94  163  160 1 
    95   76   78 1 
    96   76   77 1 
    97   76   73 1 
    98   59   58 1 
    99   74   73 1 
   100  100   99 1 
   101   96   98 1 
   102   96   99 1 
   103   96   97 1 
   104   58   60 1 
   105   58   56 1 
   106   75   73 1 
   107   73   70 1 
   108  159  157 1 
   109  101   99 1 
   110   99  102 1 
   111  160  161 1 
   112  160  157 1 
   113  160  162 1 
   114  123  121 1 
   115  148  147 1 
   116  157  158 1 
   117  157  154 1 
   118  129  128 1 
   119  142  141 1 
   120   69   67 1 
   121  149  147 1 
   122   68   67 1 
   123  122  121 1 
   124   56   57 2 
   125   56   55 1 
   126  130  128 1 
   127  136  135 1 
   128   70   67 1 
   129   70   71 1 
   130   70   72 1 
   131  121  124 1 
   132  121  118 1 
   133  117  115 1 
   134  143  141 1 
   135  147  150 1 
   136  147  144 1 
   137   67   64 1 
   138  102  104 1 
   139  102  105 1 
   140  102  103 1 
   141  128  126 1 
   142  128  131 1 
   143   55   52 1 
   144  124  126 2 
   145  124  125 1 
   146  126  127 1 
   147  141  144 1 
   148  141  138 1 
   149  137  135 1 
   150  116  115 1 
   151  156  154 1 
   152  154  155 1 
   153  154  151 1 
   154  135  138 1 
   155  135  133 1 
   156  115  118 1 
   157  115  112 1 
   158  144  146 1 
   159  144  145 1 
   160   51   49 1 
   161  118  119 1 
   162  118  120 1 
   163  138  140 1 
   164  138  139 1 
   165  131  133 2 
   166  131  132 1 
   167   64   65 1 
   168   64   66 1 
   169   64   61 1 
   170   52   54 1 
   171   52   44 1 
   172   52   53 1 
   173   45   44 1 
   174  133  134 1 
   175  113  112 1 
   176   63   61 1 
   177  153  151 1 
   178  151   49 1 
   179  151  152 1 
   180   49   47 1 
   181   49   50 1 
   182  112  114 1 
   183  112  109 1 
   184   46   47 1 
   185   46   44 1 
   186   47   48 2 
   187   44    9 1 
   188   61   62 1 
   189   61   32 1 
   190  111  109 1 
   191  109  110 1 
   192  109  106 1 
   193   43   41 1 
   194   42   41 1 
   195    9   10 1 
   196    9   11 1 
   197    9    8 1 
   198   32   33 1 
   199   32   34 1 
   200   32   30 1 
   201   31   30 2 
   202   41  106 1 
   203   41   39 1 
   204  106  107 1 
   205  106  108 1 
   206    8    4 1 
   207   30   29 1 
   208   14   15 1 
   209   14   12 1 
   210   18   16 1 
   211   38   39 1 
   212   38   35 1 
   213    3    1 1 
   214   39   40 2 
   215   29   27 1 
   216    4    7 1 
   217    4    6 2 
   218    4    5 1 
   219   16   12 1 
   220   16   22 1 
   221   16   17 1 
   222   36   35 1 
   223    7    1 1 
   224   12    1 1 
   225   12   13 1 
   226    1    2 1 
   227   35   27 1 
   228   35   37 1 
   229   22   19 1 
   230   28   27 1 
   231   27   24 1 
   232   21   19 2 
   233   19   23 1 
   234   19   20 1 
   235   24   25 1 
   236   24   23 1 
   237   24   26 1 
