@<TRIPOS>MOLECULE
C:\Users\Praveer\PycharmProjects\pdb_to_mol2_converter\data\pdb\lnccl1.pdb
  239   238     0     0     0
SMALL
GASTEIGER

@<TRIPOS>ATOM
      1 C3          1.5610    0.0090    0.0210 C.3       1 LNC1        0.0000
      2 HG31        1.9110   -0.5980    0.8910 H         1 LNC1        0.0000
      3 HG32        1.9210   -0.5010   -0.9000 H         1 LNC1        0.0000
      4 P3          2.9970    1.8960    1.1790 P.3       1 LNC1        0.0000
      5 OP33        2.1380    2.2120    2.3410 O.3       1 LNC1        0.0000
      6 OP34        3.8730    2.9600    0.6490 O.2       1 LNC1        0.0000
      7 OP31        2.0730    1.3400    0.0200 O.3       1 LNC1        0.0000
      8 OP32        3.8780    0.6350    1.5490 O.3       1 LNC1        0.0000
      9 C31         4.8720    0.1750    0.6340 C.3       1 LNC1        0.0000
     10 H31J        5.5990    0.9860    0.3910 H         1 LNC1        0.0000
     11 H31K        4.4070   -0.1590   -0.3210 H         1 LNC1        0.0000
     12 C2          0.0120   -0.0130    0.0310 C.3       1 LNC1        0.0000
     13 HG22       -0.3620    0.5390   -0.8610 H         1 LNC1        0.0000
     14 OG12       -0.3950   -1.3780   -0.0660 O.3       1 LNC1        0.0000
     15 HO12        0.0610   -1.7270   -0.8370 H         1 LNC1        0.0000
     16 C1         -0.6110    0.6500    1.2950 C.3       1 LNC1        0.0000
     17 HG11        0.1280    0.4870    2.1190 H         1 LNC1        0.0000
     18 HG12       -1.5470    0.1000    1.5520 H         1 LNC1        0.0000
     19 P1         -1.1190    2.9280    2.3330 P.3       1 LNC1        0.0000
     20 OP13        0.1180    3.8710    2.5240 O.3       1 LNC1        0.0000
     21 HP13        0.9420    3.3480    2.4370 H         1 LNC1        0.0000
     22 OP14       -2.3460    3.7400    2.3210 O.2       1 LNC1        0.0000
     23 OP11       -0.9280    2.0280    1.0570 O.3       1 LNC1        0.0000
     24 OP12       -1.1280    1.9230    3.5380 O.3       1 LNC1        0.0000
     25 C11        -0.9650    2.4480    4.8550 C.3       1 LNC1        0.0000
     26 H11J       -1.6220    1.8510    5.5260 H         1 LNC1        0.0000
     27 H11K       -1.2830    3.5120    4.9680 H         1 LNC1        0.0000
     28 C12         0.4970    2.2750    5.3760 C.3       1 LNC1        0.0000
     29 H12J        1.1280    3.0010    4.8080 H         1 LNC1        0.0000
     30 O12         0.9430    0.9330    5.0910 O.3       1 LNC1        0.0000
     31 CA1         2.2650    0.7750    5.1500 C.2       1 LNC1        0.0000
     32 OA1         3.0580    1.6100    5.5480 O.2       1 LNC1        0.0000
     33 CA2         2.6180   -0.6140    4.6200 C.3       1 LNC1        0.0000
     34 H2A         2.8270   -0.4950    3.5350 H         1 LNC1        0.0000
     35 H2B         1.7410   -1.2810    4.7400 H         1 LNC1        0.0000
     36 C13         0.5950    2.6270    6.8930 C.3       1 LNC1        0.0000
     37 H13J        0.4500    3.7270    6.9770 H         1 LNC1        0.0000
     38 H13K        1.6120    2.4210    7.2960 H         1 LNC1        0.0000
     39 O13        -0.4410    1.9800    7.6590 O.3       1 LNC1        0.0000
     40 CB1        -0.1590    0.7610    8.1090 C.2       1 LNC1        0.0000
     41 OB1         0.9010    0.1810    7.9950 O.2       1 LNC1        0.0000
     42 CB2        -1.3920    0.2110    8.8250 C.3       1 LNC1        0.0000
     43 H2D        -2.3010    0.6190    8.3380 H         1 LNC1        0.0000
     44 H2E        -1.3540    0.5750    9.8720 H         1 LNC1        0.0000
     45 C32         5.6570   -1.0060    1.2660 C.3       1 LNC1        0.0000
     46 H32J        6.3420   -1.4400    0.5020 H         1 LNC1        0.0000
     47 O32         4.7650   -2.0150    1.7760 O.3       1 LNC1        0.0000
     48 CC1         4.0780   -2.6790    0.8710 C.2       1 LNC1        0.0000
     49 OC1         4.2280   -2.6290   -0.3370 O.2       1 LNC1        0.0000
     50 CC2         3.0510   -3.5610    1.5820 C.3       1 LNC1        0.0000
     51 H2R         2.4790   -4.1120    0.8100 H         1 LNC1        0.0000
     52 H2S         2.3590   -2.8760    2.1140 H         1 LNC1        0.0000
     53 C33         6.5300   -0.5000    2.4440 C.3       1 LNC1        0.0000
     54 H33J        5.8230   -0.0210    3.1670 H         1 LNC1        0.0000
     55 H33K        7.2330    0.2780    2.0760 H         1 LNC1        0.0000
     56 O33         7.2560   -1.6000    3.0340 O.3       1 LNC1        0.0000
     57 CD1         7.5970   -1.4140    4.3020 C.2       1 LNC1        0.0000
     58 OD1         7.5430   -0.3630    4.9100 O.2       1 LNC1        0.0000
     59 CD2         8.0200   -2.7490    4.9100 C.3       1 LNC1        0.0000
     60 H2X         8.1610   -2.5760    5.9970 H         1 LNC1        0.0000
     61 H2Y         8.9890   -3.0520    4.4660 H         1 LNC1        0.0000
     62 CA3         3.8550   -1.2230    5.3150 C.3       1 LNC1        0.0000
     63 H3A         4.7120   -0.5120    5.2680 H         1 LNC1        0.0000
     64 H3B         4.1510   -2.1330    4.7480 H         1 LNC1        0.0000
     65 CA4         3.5860   -1.6150    6.7750 C.3       1 LNC1        0.0000
     66 H4A         2.6610   -2.2290    6.8360 H         1 LNC1        0.0000
     67 H4B         3.4100   -0.6860    7.3640 H         1 LNC1        0.0000
     68 CA5         4.7500   -2.3930    7.4040 C.3       1 LNC1        0.0000
     69 H5A         5.6940   -1.8540    7.1670 H         1 LNC1        0.0000
     70 H5B         4.8090   -3.4040    6.9460 H         1 LNC1        0.0000
     71 CA6         4.6150   -2.5290    8.9280 C.3       1 LNC1        0.0000
     72 H6A         3.6360   -3.0020    9.1630 H         1 LNC1        0.0000
     73 H6B         4.6000   -1.5090    9.3750 H         1 LNC1        0.0000
     74 CA7         5.7310   -3.3580    9.5920 C.3       1 LNC1        0.0000
     75 H7A         5.6220   -4.4190    9.2700 H         1 LNC1        0.0000
     76 H7B         5.5840   -3.3300   10.6960 H         1 LNC1        0.0000
     77 CA8         7.1720   -2.9060    9.2730 C.3       1 LNC1        0.0000
     78 H8A         7.3660   -3.0730    8.1920 H         1 LNC1        0.0000
     79 H8B         7.8640   -3.5860    9.8170 H         1 LNC1        0.0000
     80 CA9         7.4230   -1.4550    9.6110 C.2       1 LNC1        0.0000
     81 H9A         6.9410   -0.7430    8.9220 H         1 LNC1        0.0000
     82 CA10        8.1420   -0.9620   10.6390 C.2       1 LNC1        0.0000
     83 H10A        8.2230    0.1330   10.7350 H         1 LNC1        0.0000
     84 CA11        8.8770   -1.7400   11.7050 C.3       1 LNC1        0.0000
     85 H11A        9.9330   -1.3940   11.7330 H         1 LNC1        0.0000
     86 H11B        8.9260   -2.8200   11.4510 H         1 LNC1        0.0000
     87 CA12        8.2550   -1.5360   13.0670 C.2       1 LNC1        0.0000
     88 H12A        7.9020   -0.5140   13.2790 H         1 LNC1        0.0000
     89 CA13        8.0840   -2.4810   14.0100 C.2       1 LNC1        0.0000
     90 H13A        7.6020   -2.2020   14.9580 H         1 LNC1        0.0000
     91 CA14        8.5000   -3.9270   13.9100 C.3       1 LNC1        0.0000
     92 H14A        8.7860   -4.3100   14.9140 H         1 LNC1        0.0000
     93 H14B        9.4030   -4.0280   13.2700 H         1 LNC1        0.0000
     94 CA15        7.4000   -4.8380   13.3270 C.3       1 LNC1        0.0000
     95 H15A        7.8120   -5.8690   13.2410 H         1 LNC1        0.0000
     96 H15B        7.1450   -4.4950   12.2990 H         1 LNC1        0.0000
     97 CA16        6.1280   -4.8920   14.1880 C.3       1 LNC1        0.0000
     98 H16A        5.6540   -3.8870   14.1970 H         1 LNC1        0.0000
     99 H16B        6.4150   -5.1390   15.2340 H         1 LNC1        0.0000
    100 CA17        5.0910   -5.9210   13.7060 C.3       1 LNC1        0.0000
    101 H17A        4.2470   -5.9270   14.4340 H         1 LNC1        0.0000
    102 H17B        5.5540   -6.9340   13.7260 H         1 LNC1        0.0000
    103 CA18        4.5300   -5.6490   12.3070 C.3       1 LNC1        0.0000
    104 H18A        5.3250   -5.7360   11.5370 H         1 LNC1        0.0000
    105 H18B        4.1070   -4.6230   12.2530 H         1 LNC1        0.0000
    106 H18C        3.7240   -6.3720   12.0620 H         1 LNC1        0.0000
    107 CB3        -1.4320   -1.3310    8.7930 C.3       1 LNC1        0.0000
    108 H3D        -0.5080   -1.7420    9.2590 H         1 LNC1        0.0000
    109 H3E        -1.4410   -1.6770    7.7330 H         1 LNC1        0.0000
    110 CB4        -2.6610   -1.9220    9.5060 C.3       1 LNC1        0.0000
    111 H4D        -2.6270   -3.0300    9.4060 H         1 LNC1        0.0000
    112 H4E        -3.5820   -1.5760    8.9860 H         1 LNC1        0.0000
    113 CB5        -2.7790   -1.5670   11.0020 C.3       1 LNC1        0.0000
    114 H5D        -3.6330   -2.1390   11.4310 H         1 LNC1        0.0000
    115 H5E        -3.0270   -0.4870   11.0990 H         1 LNC1        0.0000
    116 CB6        -1.5210   -1.8560   11.8410 C.3       1 LNC1        0.0000
    117 H6D        -1.7290   -1.5940   12.9030 H         1 LNC1        0.0000
    118 H6E        -0.6990   -1.1910   11.4970 H         1 LNC1        0.0000
    119 CB7        -1.0530   -3.3200   11.7780 C.3       1 LNC1        0.0000
    120 H7D        -0.8540   -3.6080   10.7220 H         1 LNC1        0.0000
    121 H7E        -1.8790   -3.9700   12.1440 H         1 LNC1        0.0000
    122 CB8         0.2090   -3.6050   12.6180 C.3       1 LNC1        0.0000
    123 H8D         0.4220   -4.6960   12.5560 H         1 LNC1        0.0000
    124 H8E        -0.0300   -3.3740   13.6800 H         1 LNC1        0.0000
    125 CB9         1.4100   -2.8280   12.1330 C.2       1 LNC1        0.0000
    126 H9D         1.4160   -2.6190   11.0510 H         1 LNC1        0.0000
    127 CB10        2.4120   -2.3450   12.8910 C.2       1 LNC1        0.0000
    128 H10D        3.2250   -1.7860   12.3990 H         1 LNC1        0.0000
    129 CB11        2.5820   -2.5260   14.3800 C.3       1 LNC1        0.0000
    130 H11D        3.5350   -3.0670   14.5640 H         1 LNC1        0.0000
    131 H11E        1.7960   -3.1880   14.8060 H         1 LNC1        0.0000
    132 CB12        2.5550   -1.2060   15.1120 C.2       1 LNC1        0.0000
    133 H12D        1.5630   -0.7280   15.1650 H         1 LNC1        0.0000
    134 CB13        3.6000   -0.5970   15.7040 C.2       1 LNC1        0.0000
    135 H13D        3.4360    0.3600   16.2230 H         1 LNC1        0.0000
    136 CB14        5.0220   -1.1010   15.7270 C.3       1 LNC1        0.0000
    137 H14D        5.7310   -0.2440   15.7610 H         1 LNC1        0.0000
    138 H14E        5.2520   -1.6590   14.7910 H         1 LNC1        0.0000
    139 CB15        5.3130   -2.0320   16.9220 C.3       1 LNC1        0.0000
    140 H15D        6.3430   -2.4400   16.8130 H         1 LNC1        0.0000
    141 H15E        4.6130   -2.8970   16.9020 H         1 LNC1        0.0000
    142 CB16        5.2170   -1.3340   18.2880 C.3       1 LNC1        0.0000
    143 H16D        4.1810   -0.9570   18.4400 H         1 LNC1        0.0000
    144 H16E        5.9010   -0.4560   18.2980 H         1 LNC1        0.0000
    145 CB17        5.5820   -2.2660   19.4510 C.3       1 LNC1        0.0000
    146 H17D        6.6150   -2.6500   19.2920 H         1 LNC1        0.0000
    147 H17E        4.8940   -3.1420   19.4340 H         1 LNC1        0.0000
    148 CB18        5.5020   -1.5870   20.8200 C.3       1 LNC1        0.0000
    149 H18D        4.4720   -1.2170   21.0110 H         1 LNC1        0.0000
    150 H18E        6.1990   -0.7230   20.8680 H         1 LNC1        0.0000
    151 H18F        5.7730   -2.3020   21.6270 H         1 LNC1        0.0000
    152 CC3         3.7140   -4.5480    2.5720 C.3       1 LNC1        0.0000
    153 H3R         4.3730   -3.9790    3.2680 H         1 LNC1        0.0000
    154 H3S         4.3580   -5.2650    2.0160 H         1 LNC1        0.0000
    155 CC4         2.7090   -5.3310    3.4320 C.3       1 LNC1        0.0000
    156 H4R         3.2840   -5.9600    4.1490 H         1 LNC1        0.0000
    157 H4S         2.1090   -6.0160    2.7940 H         1 LNC1        0.0000
    158 CC5         1.7650   -4.4180    4.2260 C.3       1 LNC1        0.0000
    159 H5R         0.9360   -4.0760    3.5680 H         1 LNC1        0.0000
    160 H5S         2.3310   -3.5160    4.5490 H         1 LNC1        0.0000
    161 CC6         1.1970   -5.0780    5.4860 C.3       1 LNC1        0.0000
    162 H6R         2.0450   -5.2920    6.1750 H         1 LNC1        0.0000
    163 H6S         0.7210   -6.0500    5.2270 H         1 LNC1        0.0000
    164 CC7         0.1700   -4.1790    6.1940 C.3       1 LNC1        0.0000
    165 H7R        -0.7600   -4.1650    5.5820 H         1 LNC1        0.0000
    166 H7S         0.5540   -3.1330    6.2240 H         1 LNC1        0.0000
    167 CC8        -0.1720   -4.6420    7.6220 C.3       1 LNC1        0.0000
    168 H8R        -0.5030   -5.7020    7.5720 H         1 LNC1        0.0000
    169 H8S        -1.0430   -4.0510    7.9790 H         1 LNC1        0.0000
    170 CC9         0.9940   -4.4360    8.5600 C.2       1 LNC1        0.0000
    171 H9R         1.4870   -3.4570    8.4540 H         1 LNC1        0.0000
    172 CC10        1.4900   -5.3130    9.4550 C.2       1 LNC1        0.0000
    173 H10R        2.3580   -5.0030   10.0600 H         1 LNC1        0.0000
    174 CC11        0.9680   -6.6970    9.7600 C.3       1 LNC1        0.0000
    175 H11R        0.2160   -7.0240    9.0090 H         1 LNC1        0.0000
    176 H11S        0.4150   -6.6660   10.7240 H         1 LNC1        0.0000
    177 CC12        2.0600   -7.7350    9.8600 C.2       1 LNC1        0.0000
    178 H12R        2.3830   -7.9700   10.8850 H         1 LNC1        0.0000
    179 CC13        2.6430   -8.3840    8.8330 C.2       1 LNC1        0.0000
    180 H13R        3.4260   -9.1250    9.0540 H         1 LNC1        0.0000
    181 CC14        2.3380   -8.2010    7.3640 C.3       1 LNC1        0.0000
    182 H14R        3.2100   -7.7060    6.8800 H         1 LNC1        0.0000
    183 H14S        1.4850   -7.5070    7.2010 H         1 LNC1        0.0000
    184 CC15        2.0520   -9.5170    6.6910 C.2       1 LNC1        0.0000
    185 H15R        0.9980   -9.8390    6.6950 H         1 LNC1        0.0000
    186 CC16        2.9710  -10.3000    6.0990 C.2       1 LNC1        0.0000
    187 H16R        4.0260   -9.9800    6.0900 H         1 LNC1        0.0000
    188 CC17        2.6710  -11.6170    5.4360 C.3       1 LNC1        0.0000
    189 H17R        1.8780  -12.1700    5.9920 H         1 LNC1        0.0000
    190 H17S        3.5750  -12.2660    5.4460 H         1 LNC1        0.0000
    191 CC18        2.2010  -11.4200    3.9890 C.3       1 LNC1        0.0000
    192 H18R        2.9550  -10.8570    3.3970 H         1 LNC1        0.0000
    193 H18S        1.2410  -10.8580    3.9600 H         1 LNC1        0.0000
    194 H18T        2.0370  -12.4030    3.4980 H         1 LNC1        0.0000
    195 CD3         6.9480   -3.8380    4.6820 C.3       1 LNC1        0.0000
    196 H3X         6.9170   -4.1210    3.6050 H         1 LNC1        0.0000
    197 H3Y         5.9460   -3.4290    4.9440 H         1 LNC1        0.0000
    198 CD4         7.1700   -5.0880    5.5380 C.3       1 LNC1        0.0000
    199 H4X         7.2350   -4.7800    6.6050 H         1 LNC1        0.0000
    200 H4Y         8.1370   -5.5630    5.2610 H         1 LNC1        0.0000
    201 CD5         6.0300   -6.1040    5.3720 C.3       1 LNC1        0.0000
    202 H5X         5.9510   -6.3720    4.2940 H         1 LNC1        0.0000
    203 H5Y         5.0690   -5.6260    5.6700 H         1 LNC1        0.0000
    204 CD6         6.2260   -7.3900    6.1880 C.3       1 LNC1        0.0000
    205 H6X         7.2100   -7.8400    5.9270 H         1 LNC1        0.0000
    206 H6Y         5.4360   -8.1190    5.9000 H         1 LNC1        0.0000
    207 CD7         6.1570   -7.1680    7.7060 C.3       1 LNC1        0.0000
    208 H7X         5.1650   -6.7330    7.9630 H         1 LNC1        0.0000
    209 H7Y         6.9340   -6.4270    8.0020 H         1 LNC1        0.0000
    210 CD8         6.3810   -8.4680    8.4980 C.3       1 LNC1        0.0000
    211 H8X         7.3620   -8.8990    8.1920 H         1 LNC1        0.0000
    212 H8Y         5.6070   -9.2100    8.2010 H         1 LNC1        0.0000
    213 CD9         6.3370   -8.2310    9.9870 C.2       1 LNC1        0.0000
    214 H9X         5.3640   -8.4210   10.4660 H         1 LNC1        0.0000
    215 CD10        7.3650   -7.8080   10.7480 C.2       1 LNC1        0.0000
    216 H10X        7.1990   -7.6650   11.8280 H         1 LNC1        0.0000
    217 CD11        8.7550   -7.4670   10.2670 C.3       1 LNC1        0.0000
    218 H11X        8.9370   -6.3850   10.4460 H         1 LNC1        0.0000
    219 H11Y        8.8500   -7.5910    9.1670 H         1 LNC1        0.0000
    220 CD12        9.8010   -8.3240   10.9410 C.2       1 LNC1        0.0000
    221 H12X        9.7790   -9.3860   10.6490 H         1 LNC1        0.0000
    222 CD13       10.7380   -7.9140   11.8190 C.2       1 LNC1        0.0000
    223 H13X       11.4490   -8.6530   12.2200 H         1 LNC1        0.0000
    224 CD14       10.9210   -6.5090   12.3380 C.3       1 LNC1        0.0000
    225 H14X       11.1260   -6.5370   13.4310 H         1 LNC1        0.0000
    226 H14Y        9.9950   -5.9080   12.2100 H         1 LNC1        0.0000
    227 CD15       12.0670   -5.7660   11.6270 C.3       1 LNC1        0.0000
    228 H15X       11.9220   -5.8420   10.5240 H         1 LNC1        0.0000
    229 H15Y       13.0380   -6.2500   11.8730 H         1 LNC1        0.0000
    230 CD16       12.1410   -4.2710   11.9840 C.3       1 LNC1        0.0000
    231 H16X       11.1800   -3.7850   11.7040 H         1 LNC1        0.0000
    232 H16Y       12.9430   -3.7960   11.3740 H         1 LNC1        0.0000
    233 CD17       12.4280   -3.9930   13.4660 C.3       1 LNC1        0.0000
    234 H17X       13.3940   -4.4760   13.7410 H         1 LNC1        0.0000
    235 H17Y       11.6340   -4.4600   14.0910 H         1 LNC1        0.0000
    236 CD18       12.4960   -2.5000   13.7960 C.3       1 LNC1        0.0000
    237 H18X       11.5240   -2.0100   13.5700 H         1 LNC1        0.0000
    238 H18Y       13.2870   -2.0040   13.1950 H         1 LNC1        0.0000
    239 H18Z       12.7230   -2.3470   14.8730 H         1 LNC1        0.0000
@<TRIPOS>BOND
     1    3    1 1 
     2   13   12 1 
     3   15   14 1 
     4   49   48 2 
     5   11    9 1 
     6   14   12 1 
     7    7    1 1 
     8    7    4 1 
     9    1   12 1 
    10    1    2 1 
    11   12   16 1 
    12   10    9 1 
    13   46   45 1 
    14    9   45 1 
    15    9    8 1 
    16    6    4 2 
    17   51   50 1 
    18   48   50 1 
    19   48   47 1 
    20   23   16 1 
    21   23   19 1 
    22    4    8 1 
    23    4    5 1 
    24   45   47 1 
    25   45   53 1 
    26   16   18 1 
    27   16   17 1 
    28   50   52 1 
    29   50  152 1 
    30  154  152 1 
    31   55   53 1 
    32   22   19 2 
    33   19   20 1 
    34   19   24 1 
    35   21   20 1 
    36   53   56 1 
    37   53   54 1 
    38  152  153 1 
    39  152  155 1 
    40  157  155 1 
    41   56   57 1 
    42  192  191 1 
    43  155  156 1 
    44  155  158 1 
    45  194  191 1 
    46   34   33 1 
    47   24   25 1 
    48  159  158 1 
    49  196  195 1 
    50  193  191 1 
    51  191  188 1 
    52  158  160 1 
    53  158  161 1 
    54  202  201 1 
    55   57   59 1 
    56   57   58 2 
    57   61   59 1 
    58   33   35 1 
    59   33   31 1 
    60   33   62 1 
    61  195   59 1 
    62  195  197 1 
    63  195  198 1 
    64   64   62 1 
    65   29   28 1 
    66   25   27 1 
    67   25   28 1 
    68   25   26 1 
    69   59   60 1 
    70   30   31 1 
    71   30   28 1 
    72   31   32 2 
    73  163  161 1 
    74  200  198 1 
    75   63   62 1 
    76   62   65 1 
    77  201  198 1 
    78  201  203 1 
    79  201  204 1 
    80   28   36 1 
    81  188  190 1 
    82  188  189 1 
    83  188  186 1 
    84  161  162 1 
    85  161  164 1 
    86  198  199 1 
    87  165  164 1 
    88  206  204 1 
    89  205  204 1 
    90  187  186 1 
    91  186  184 2 
    92  204  207 1 
    93  164  166 1 
    94  164  167 1 
    95  184  185 1 
    96  184  181 1 
    97   65   66 1 
    98   65   67 1 
    99   65   68 1 
   100  182  181 1 
   101   36   37 1 
   102   36   38 1 
   103   36   39 1 
   104   70   68 1 
   105   69   68 1 
   106  183  181 1 
   107  181  179 1 
   108   68   71 1 
   109  168  167 1 
   110  167  169 1 
   111  167  170 1 
   112   39   40 1 
   113  207  208 1 
   114  207  209 1 
   115  207  210 1 
   116  109  107 1 
   117   41   40 2 
   118   40   42 1 
   119  211  210 1 
   120   78   77 1 
   121  212  210 1 
   122   43   42 1 
   123  171  170 1 
   124  210  213 1 
   125  170  172 2 
   126  107   42 1 
   127  107  108 1 
   128  107  110 1 
   129   42   44 1 
   130  179  180 1 
   131  179  177 2 
   132   81   80 1 
   133   71   72 1 
   134   71   73 1 
   135   71   74 1 
   136  112  110 1 
   137  175  174 1 
   138  219  217 1 
   139   75   74 1 
   140   77   74 1 
   141   77   80 1 
   142   77   79 1 
   143  111  110 1 
   144  172  174 1 
   145  172  173 1 
   146  110  113 1 
   147   74   76 1 
   148   80   82 2 
   149  174  177 1 
   150  174  176 1 
   151  177  178 1 
   152  213  214 1 
   153  213  215 2 
   154  217  218 1 
   155  217  215 1 
   156  217  220 1 
   157  228  227 1 
   158   82   83 1 
   159   82   84 1 
   160  221  220 1 
   161  120  119 1 
   162  215  216 1 
   163  220  222 2 
   164  113  115 1 
   165  113  114 1 
   166  113  116 1 
   167  126  125 1 
   168  232  230 1 
   169   86   84 1 
   170  118  116 1 
   171  104  103 1 
   172  227  229 1 
   173  227  230 1 
   174  227  224 1 
   175  231  230 1 
   176   84   85 1 
   177   84   87 1 
   178  119  116 1 
   179  119  121 1 
   180  119  122 1 
   181  222  223 1 
   182  222  224 1 
   183  116  117 1 
   184  230  233 1 
   185  106  103 1 
   186  125  122 1 
   187  125  127 2 
   188  226  224 1 
   189  105  103 1 
   190   96   94 1 
   191  103  100 1 
   192  224  225 1 
   193  128  127 1 
   194  123  122 1 
   195  122  124 1 
   196  127  129 1 
   197   87   88 1 
   198   87   89 2 
   199  238  236 1 
   200   95   94 1 
   201   93   91 1 
   202   94   91 1 
   203   94   97 1 
   204  233  234 1 
   205  233  236 1 
   206  233  235 1 
   207  237  236 1 
   208  100  102 1 
   209  100   97 1 
   210  100  101 1 
   211  236  239 1 
   212   91   89 1 
   213   91   92 1 
   214   89   90 1 
   215   97   98 1 
   216   97   99 1 
   217  129  130 1 
   218  129  131 1 
   219  129  132 1 
   220  138  136 1 
   221  132  133 1 
   222  132  134 2 
   223  134  136 1 
   224  134  135 1 
   225  136  137 1 
   226  136  139 1 
   227  140  139 1 
   228  141  139 1 
   229  139  142 1 
   230  142  144 1 
   231  142  143 1 
   232  142  145 1 
   233  146  145 1 
   234  147  145 1 
   235  145  148 1 
   236  148  150 1 
   237  148  149 1 
   238  148  151 1 
