@<TRIPOS>MOLECULE
C:\Users\Praveer\PycharmProjects\pdb_to_mol2_converter\data\pdb\lndcl1.pdb
  239   238     0     0     0
SMALL
GASTEIGER

@<TRIPOS>ATOM
      1 C3          1.5540    0.0080    0.0090 C.3       1 LND1        0.0000
      2 HG31        1.9000   -0.6000    0.8800 H         1 LND1        0.0000
      3 HG32        1.9160   -0.5020   -0.9110 H         1 LND1        0.0000
      4 P3          2.9810    1.9020    1.1780 P.3       1 LND1        0.0000
      5 OP33        2.1090    2.2180    2.3300 O.3       1 LND1        0.0000
      6 OP34        3.8530    2.9680    0.6500 O.2       1 LND1        0.0000
      7 OP31        2.0700    1.3380    0.0120 O.3       1 LND1        0.0000
      8 OP32        3.8660    0.6470    1.5600 O.3       1 LND1        0.0000
      9 C31         4.8610    0.1850    0.6450 C.3       1 LND1        0.0000
     10 H31J        5.5880    0.9960    0.4020 H         1 LND1        0.0000
     11 H31K        4.3950   -0.1490   -0.3090 H         1 LND1        0.0000
     12 C2          0.0050   -0.0020    0.0150 C.3       1 LND1        0.0000
     13 HG22       -0.3630    0.5820   -0.8580 H         1 LND1        0.0000
     14 OG12       -0.4160   -1.3610   -0.1300 O.3       1 LND1        0.0000
     15 HO12       -0.0140   -1.6670   -0.9480 H         1 LND1        0.0000
     16 C1         -0.6120    0.6250    1.3000 C.3       1 LND1        0.0000
     17 HG11        0.1600    0.5060    2.1010 H         1 LND1        0.0000
     18 HG12       -1.5060    0.0280    1.5900 H         1 LND1        0.0000
     19 P1         -1.1700    2.8900    2.3450 P.3       1 LND1        0.0000
     20 OP13        0.0590    3.8510    2.4810 O.3       1 LND1        0.0000
     21 HP13        0.8880    3.3350    2.4000 H         1 LND1        0.0000
     22 OP14       -2.4100    3.6830    2.3750 O.2       1 LND1        0.0000
     23 OP11       -1.0120    1.9840    1.0700 O.3       1 LND1        0.0000
     24 OP12       -1.1140    1.9000    3.5590 O.3       1 LND1        0.0000
     25 C11        -0.9460    2.4450    4.8670 C.3       1 LND1        0.0000
     26 H11J       -1.6070    1.8650    5.5480 H         1 LND1        0.0000
     27 H11K       -1.2520    3.5150    4.9670 H         1 LND1        0.0000
     28 C12         0.5170    2.2720    5.3870 C.3       1 LND1        0.0000
     29 H12J        1.1460    2.9950    4.8140 H         1 LND1        0.0000
     30 O12         0.9600    0.9280    5.1080 O.3       1 LND1        0.0000
     31 CA1         2.2830    0.7710    5.1640 C.2       1 LND1        0.0000
     32 OA1         3.0750    1.6070    5.5590 O.2       1 LND1        0.0000
     33 CA2         2.6380   -0.6180    4.6330 C.3       1 LND1        0.0000
     34 H2A         2.8500   -0.4980    3.5490 H         1 LND1        0.0000
     35 H2B         1.7610   -1.2860    4.7500 H         1 LND1        0.0000
     36 C13         0.6130    2.6300    6.9030 C.3       1 LND1        0.0000
     37 H13J        0.4730    3.7310    6.9810 H         1 LND1        0.0000
     38 H13K        1.6290    2.4210    7.3080 H         1 LND1        0.0000
     39 O13        -0.4290    1.9910    7.6680 O.3       1 LND1        0.0000
     40 CB1        -0.1540    0.7740    8.1280 C.2       1 LND1        0.0000
     41 OB1         0.9110    0.1950    8.0370 O.2       1 LND1        0.0000
     42 CB2        -1.4000    0.2210    8.8180 C.3       1 LND1        0.0000
     43 H2D        -2.3000    0.6180    8.3060 H         1 LND1        0.0000
     44 H2E        -1.3900    0.5940    9.8630 H         1 LND1        0.0000
     45 C32         5.6470   -0.9980    1.2730 C.3       1 LND1        0.0000
     46 H32J        6.3290   -1.4310    0.5040 H         1 LND1        0.0000
     47 O32         4.7540   -2.0070    1.7830 O.3       1 LND1        0.0000
     48 CC1         4.0890   -2.6840    0.8710 C.2       1 LND1        0.0000
     49 OC1         4.2600   -2.6420   -0.3340 O.2       1 LND1        0.0000
     50 CC2         3.0560   -3.5690    1.5710 C.3       1 LND1        0.0000
     51 H2R         2.4900   -4.1160    0.7920 H         1 LND1        0.0000
     52 H2S         2.3610   -2.8860    2.1020 H         1 LND1        0.0000
     53 C33         6.5300   -0.5000    2.4470 C.3       1 LND1        0.0000
     54 H33J        5.8340   -0.0140    3.1750 H         1 LND1        0.0000
     55 H33K        7.2400    0.2700    2.0730 H         1 LND1        0.0000
     56 O33         7.2460   -1.6090    3.0340 O.3       1 LND1        0.0000
     57 CD1         7.6420   -1.4030    4.2820 C.2       1 LND1        0.0000
     58 OD1         7.6440   -0.3350    4.8630 O.2       1 LND1        0.0000
     59 CD2         8.0480   -2.7350    4.9090 C.3       1 LND1        0.0000
     60 H2X         8.1730   -2.5520    5.9970 H         1 LND1        0.0000
     61 H2Y         9.0220   -3.0470    4.4840 H         1 LND1        0.0000
     62 CA3         3.8740   -1.2300    5.3290 C.3       1 LND1        0.0000
     63 H3A         4.7300   -0.5180    5.2940 H         1 LND1        0.0000
     64 H3B         4.1750   -2.1340    4.7530 H         1 LND1        0.0000
     65 CA4         3.5980   -1.6420    6.7810 C.3       1 LND1        0.0000
     66 H4A         2.6780   -2.2630    6.8300 H         1 LND1        0.0000
     67 H4B         3.4110   -0.7200    7.3800 H         1 LND1        0.0000
     68 CA5         4.7620   -2.4200    7.4130 C.3       1 LND1        0.0000
     69 H5A         5.7060   -1.8760    7.1850 H         1 LND1        0.0000
     70 H5B         4.8270   -3.4290    6.9500 H         1 LND1        0.0000
     71 CA6         4.6150   -2.5620    8.9350 C.3       1 LND1        0.0000
     72 H6A         3.6400   -3.0470    9.1590 H         1 LND1        0.0000
     73 H6B         4.5850   -1.5440    9.3840 H         1 LND1        0.0000
     74 CA7         5.7330   -3.3800    9.6100 C.3       1 LND1        0.0000
     75 H7A         5.6380   -4.4420    9.2880 H         1 LND1        0.0000
     76 H7B         5.5730   -3.3510   10.7120 H         1 LND1        0.0000
     77 CA8         7.1730   -2.9130    9.3070 C.3       1 LND1        0.0000
     78 H8A         7.3840   -3.0870    8.2300 H         1 LND1        0.0000
     79 H8B         7.8650   -3.5790    9.8690 H         1 LND1        0.0000
     80 CA9         7.4000   -1.4560    9.6350 C.2       1 LND1        0.0000
     81 H9A         6.8920   -0.7580    8.9510 H         1 LND1        0.0000
     82 CA10        8.1260   -0.9420   10.6470 C.2       1 LND1        0.0000
     83 H10A        8.1860    0.1550   10.7340 H         1 LND1        0.0000
     84 CA11        8.8960   -1.6960   11.7040 C.3       1 LND1        0.0000
     85 H11A        9.9400   -1.3130   11.7200 H         1 LND1        0.0000
     86 H11B        8.9840   -2.7740   11.4470 H         1 LND1        0.0000
     87 CA12        8.2810   -1.5120   13.0720 C.2       1 LND1        0.0000
     88 H12A        7.9490   -0.4880   13.3060 H         1 LND1        0.0000
     89 CA13        8.0950   -2.4720   13.9970 C.2       1 LND1        0.0000
     90 H13A        7.6200   -2.2030   14.9530 H         1 LND1        0.0000
     91 CA14        8.4840   -3.9230   13.8680 C.3       1 LND1        0.0000
     92 H14A        8.7800   -4.3290   14.8600 H         1 LND1        0.0000
     93 H14B        9.3750   -4.0290   13.2100 H         1 LND1        0.0000
     94 CA15        7.3580   -4.8030   13.2880 C.3       1 LND1        0.0000
     95 H15A        7.7520   -5.8370   13.1690 H         1 LND1        0.0000
     96 H15B        7.0840   -4.4320   12.2750 H         1 LND1        0.0000
     97 CA16        6.1040   -4.8720   14.1750 C.3       1 LND1        0.0000
     98 H16A        5.6210   -3.8710   14.1970 H         1 LND1        0.0000
     99 H16B        6.4170   -5.1200   15.2140 H         1 LND1        0.0000
    100 CA17        5.0730   -5.9150   13.7120 C.3       1 LND1        0.0000
    101 H17A        4.2350   -5.9250   14.4470 H         1 LND1        0.0000
    102 H17B        5.5490   -6.9220   13.7380 H         1 LND1        0.0000
    103 CA18        4.4990   -5.6660   12.3140 C.3       1 LND1        0.0000
    104 H18A        5.2950   -5.7250   11.5420 H         1 LND1        0.0000
    105 H18B        4.0360   -4.6580   12.2610 H         1 LND1        0.0000
    106 H18C        3.7200   -6.4200   12.0710 H         1 LND1        0.0000
    107 CB3        -1.4290   -1.3220    8.7990 C.3       1 LND1        0.0000
    108 H3D        -0.5070   -1.7230    9.2780 H         1 LND1        0.0000
    109 H3E        -1.4250   -1.6750    7.7410 H         1 LND1        0.0000
    110 CB4        -2.6600   -1.9180    9.5030 C.3       1 LND1        0.0000
    111 H4D        -2.6210   -3.0260    9.4040 H         1 LND1        0.0000
    112 H4E        -3.5790   -1.5760    8.9760 H         1 LND1        0.0000
    113 CB5        -2.7900   -1.5650   10.9980 C.3       1 LND1        0.0000
    114 H5D        -3.6430   -2.1410   11.4220 H         1 LND1        0.0000
    115 H5E        -3.0440   -0.4850   11.0940 H         1 LND1        0.0000
    116 CB6        -1.5350   -1.8470   11.8430 C.3       1 LND1        0.0000
    117 H6D        -1.7490   -1.5840   12.9040 H         1 LND1        0.0000
    118 H6E        -0.7150   -1.1790   11.5010 H         1 LND1        0.0000
    119 CB7        -1.0620   -3.3100   11.7870 C.3       1 LND1        0.0000
    120 H7D        -0.8640   -3.6030   10.7320 H         1 LND1        0.0000
    121 H7E        -1.8860   -3.9600   12.1580 H         1 LND1        0.0000
    122 CB8         0.2010   -3.5860   12.6280 C.3       1 LND1        0.0000
    123 H8D         0.4140   -4.6770   12.5760 H         1 LND1        0.0000
    124 H8E        -0.0370   -3.3460   13.6880 H         1 LND1        0.0000
    125 CB9         1.4010   -2.8140   12.1340 C.2       1 LND1        0.0000
    126 H9D         1.4020   -2.6040   11.0530 H         1 LND1        0.0000
    127 CB10        2.4090   -2.3360   12.8880 C.2       1 LND1        0.0000
    128 H10D        3.2240   -1.7830   12.3920 H         1 LND1        0.0000
    129 CB11        2.5830   -2.5200   14.3760 C.3       1 LND1        0.0000
    130 H11D        3.5400   -3.0550   14.5560 H         1 LND1        0.0000
    131 H11E        1.8030   -3.1870   14.8030 H         1 LND1        0.0000
    132 CB12        2.5480   -1.2010   15.1100 C.2       1 LND1        0.0000
    133 H12D        1.5560   -0.7260   15.1590 H         1 LND1        0.0000
    134 CB13        3.5900   -0.5910   15.7090 C.2       1 LND1        0.0000
    135 H13D        3.4210    0.3640   16.2300 H         1 LND1        0.0000
    136 CB14        5.0130   -1.0930   15.7360 C.3       1 LND1        0.0000
    137 H14D        5.7200   -0.2360   15.7770 H         1 LND1        0.0000
    138 H14E        5.2480   -1.6460   14.7990 H         1 LND1        0.0000
    139 CB15        5.2980   -2.0290   16.9280 C.3       1 LND1        0.0000
    140 H15D        6.3250   -2.4440   16.8150 H         1 LND1        0.0000
    141 H15E        4.5910   -2.8890   16.9080 H         1 LND1        0.0000
    142 CB16        5.2120   -1.3320   18.2950 C.3       1 LND1        0.0000
    143 H16D        4.1770   -0.9540   18.4550 H         1 LND1        0.0000
    144 H16E        5.8980   -0.4560   18.3020 H         1 LND1        0.0000
    145 CB17        5.5820   -2.2660   19.4560 C.3       1 LND1        0.0000
    146 H17D        6.6160   -2.6470   19.2940 H         1 LND1        0.0000
    147 H17E        4.8960   -3.1430   19.4410 H         1 LND1        0.0000
    148 CB18        5.5040   -1.5890   20.8270 C.3       1 LND1        0.0000
    149 H18D        4.4730   -1.2230   21.0220 H         1 LND1        0.0000
    150 H18E        6.1980   -0.7230   20.8730 H         1 LND1        0.0000
    151 H18F        5.7810   -2.3040   21.6320 H         1 LND1        0.0000
    152 CC3         3.7110   -4.5610    2.5620 C.3       1 LND1        0.0000
    153 H3R         4.3750   -3.9980    3.2580 H         1 LND1        0.0000
    154 H3S         4.3480   -5.2840    2.0040 H         1 LND1        0.0000
    155 CC4         2.7010   -5.3360    3.4220 C.3       1 LND1        0.0000
    156 H4R         3.2730   -5.9740    4.1340 H         1 LND1        0.0000
    157 H4S         2.0890   -6.0110    2.7850 H         1 LND1        0.0000
    158 CC5         1.7720   -4.4140    4.2250 C.3       1 LND1        0.0000
    159 H5R         0.9360   -4.0700    3.5770 H         1 LND1        0.0000
    160 H5S         2.3470   -3.5160    4.5400 H         1 LND1        0.0000
    161 CC6         1.2160   -5.0680    5.4950 C.3       1 LND1        0.0000
    162 H6R         2.0710   -5.2790    6.1770 H         1 LND1        0.0000
    163 H6S         0.7370   -6.0400    5.2430 H         1 LND1        0.0000
    164 CC7         0.1940   -4.1730    6.2130 C.3       1 LND1        0.0000
    165 H7R        -0.7320   -4.1420    5.5950 H         1 LND1        0.0000
    166 H7S         0.5830   -3.1310    6.2650 H         1 LND1        0.0000
    167 CC8        -0.1640   -4.6660    7.6280 C.3       1 LND1        0.0000
    168 H8R        -0.4740   -5.7310    7.5560 H         1 LND1        0.0000
    169 H8S        -1.0520   -4.0950    7.9770 H         1 LND1        0.0000
    170 CC9         0.9760   -4.4530    8.5950 C.2       1 LND1        0.0000
    171 H9R         1.4430   -3.4570    8.5230 H         1 LND1        0.0000
    172 CC10        1.4770   -5.3320    9.4850 C.2       1 LND1        0.0000
    173 H10R        2.3200   -5.0080   10.1150 H         1 LND1        0.0000
    174 CC11        0.9950   -6.7390    9.7550 C.3       1 LND1        0.0000
    175 H11R        0.2150   -7.0520    9.0280 H         1 LND1        0.0000
    176 H11S        0.4900   -6.7620   10.7460 H         1 LND1        0.0000
    177 CC12        2.1190   -7.7470    9.7570 C.2       1 LND1        0.0000
    178 H12R        2.5080   -8.0070   10.7540 H         1 LND1        0.0000
    179 CC13        2.6690   -8.3350    8.6760 C.2       1 LND1        0.0000
    180 H13R        3.4890   -9.0530    8.8230 H         1 LND1        0.0000
    181 CC14        2.2750   -8.1080    7.2360 C.3       1 LND1        0.0000
    182 H14R        3.1100   -7.6240    6.6830 H         1 LND1        0.0000
    183 H14S        1.4070   -7.4140    7.1630 H         1 LND1        0.0000
    184 CC15        1.8890   -9.4070    6.4990 C.3       1 LND1        0.0000
    185 H15R        1.4540   -9.1200    5.5150 H         1 LND1        0.0000
    186 H15S        1.0960   -9.9420    7.0680 H         1 LND1        0.0000
    187 CC16        3.0760  -10.3550    6.2520 C.3       1 LND1        0.0000
    188 H16R        3.5380  -10.6220    7.2280 H         1 LND1        0.0000
    189 H16S        3.8440   -9.8230    5.6480 H         1 LND1        0.0000
    190 CC17        2.6890  -11.6570    5.5320 C.3       1 LND1        0.0000
    191 H17R        1.9230  -12.1880    6.1430 H         1 LND1        0.0000
    192 H17S        3.5890  -12.3120    5.4900 H         1 LND1        0.0000
    193 CC18        2.1550  -11.4670    4.1090 C.3       1 LND1        0.0000
    194 H18R        2.8970  -10.9240    3.4850 H         1 LND1        0.0000
    195 H18S        1.2080  -10.8850    4.1160 H         1 LND1        0.0000
    196 H18T        1.9520  -12.4510    3.6350 H         1 LND1        0.0000
    197 CD3         6.9760   -3.8240    4.6790 C.3       1 LND1        0.0000
    198 H3X         6.9550   -4.1140    3.6040 H         1 LND1        0.0000
    199 H3Y         5.9730   -3.4120    4.9310 H         1 LND1        0.0000
    200 CD4         7.1920   -5.0700    5.5430 C.3       1 LND1        0.0000
    201 H4X         7.2510   -4.7580    6.6090 H         1 LND1        0.0000
    202 H4Y         8.1600   -5.5460    5.2730 H         1 LND1        0.0000
    203 CD5         6.0540   -6.0890    5.3770 C.3       1 LND1        0.0000
    204 H5X         5.9790   -6.3580    4.2980 H         1 LND1        0.0000
    205 H5Y         5.0910   -5.6170    5.6740 H         1 LND1        0.0000
    206 CD6         6.2580   -7.3750    6.1910 C.3       1 LND1        0.0000
    207 H6X         7.2490   -7.8130    5.9350 H         1 LND1        0.0000
    208 H6Y         5.4780   -8.1130    5.8990 H         1 LND1        0.0000
    209 CD7         6.1760   -7.1590    7.7100 C.3       1 LND1        0.0000
    210 H7X         5.1700   -6.7550    7.9630 H         1 LND1        0.0000
    211 H7Y         6.9290   -6.3980    8.0130 H         1 LND1        0.0000
    212 CD8         6.4380   -8.4570    8.4940 C.3       1 LND1        0.0000
    213 H8X         7.4350   -8.8500    8.1900 H         1 LND1        0.0000
    214 H8Y         5.6940   -9.2230    8.1830 H         1 LND1        0.0000
    215 CD9         6.3790   -8.2410    9.9860 C.2       1 LND1        0.0000
    216 H9X         5.4120   -8.4720   10.4580 H         1 LND1        0.0000
    217 CD10        7.3900   -7.7960   10.7560 C.2       1 LND1        0.0000
    218 H10X        7.2180   -7.6780   11.8370 H         1 LND1        0.0000
    219 CD11        8.7690   -7.3970   10.2880 C.3       1 LND1        0.0000
    220 H11X        8.9340   -6.3280   10.5490 H         1 LND1        0.0000
    221 H11Y        8.8500   -7.4340    9.1790 H         1 LND1        0.0000
    222 CD12        9.8400   -8.2810   10.8830 C.2       1 LND1        0.0000
    223 H12X        9.8500   -9.3140   10.5020 H         1 LND1        0.0000
    224 CD13       10.7700   -7.9150   11.7900 C.2       1 LND1        0.0000
    225 H13X       11.4980   -8.6660   12.1380 H         1 LND1        0.0000
    226 CD14       10.9050   -6.5530   12.4270 C.3       1 LND1        0.0000
    227 H14X       11.3230   -6.6660   13.4520 H         1 LND1        0.0000
    228 H14Y        9.8940   -6.1190   12.5730 H         1 LND1        0.0000
    229 CD15       11.7220   -5.5780   11.6120 C.2       1 LND1        0.0000
    230 H15X       11.7470   -5.7730   10.5280 H         1 LND1        0.0000
    231 CD16       12.4030   -4.5220   12.0950 C.2       1 LND1        0.0000
    232 H16X       12.9680   -3.8880   11.3950 H         1 LND1        0.0000
    233 CD17       12.4690   -4.0840   13.5370 C.3       1 LND1        0.0000
    234 H17X       13.4240   -4.4360   13.9890 H         1 LND1        0.0000
    235 H17Y       11.6430   -4.5250   14.1390 H         1 LND1        0.0000
    236 CD18       12.4010   -2.5550   13.6650 C.3       1 LND1        0.0000
    237 H18X       11.4510   -2.1590   13.2460 H         1 LND1        0.0000
    238 H18Y       13.2510   -2.0730   13.1360 H         1 LND1        0.0000
    239 H18Z       12.4530   -2.2620   14.7360 H         1 LND1        0.0000
@<TRIPOS>BOND
     1   15   14 1 
     2    3    1 1 
     3   13   12 1 
     4   49   48 2 
     5   11    9 1 
     6   14   12 1 
     7    1    7 1 
     8    1   12 1 
     9    1    2 1 
    10    7    4 1 
    11   12   16 1 
    12   10    9 1 
    13   46   45 1 
    14    9   45 1 
    15    9    8 1 
    16    6    4 2 
    17   51   50 1 
    18   48   50 1 
    19   48   47 1 
    20   23   16 1 
    21   23   19 1 
    22    4    8 1 
    23    4    5 1 
    24   45   47 1 
    25   45   53 1 
    26   16   18 1 
    27   16   17 1 
    28   50   52 1 
    29   50  152 1 
    30  154  152 1 
    31   55   53 1 
    32   19   22 2 
    33   19   20 1 
    34   19   24 1 
    35   21   20 1 
    36   53   56 1 
    37   53   54 1 
    38  152  153 1 
    39  152  155 1 
    40  157  155 1 
    41   56   57 1 
    42  155  156 1 
    43  155  158 1 
    44  194  193 1 
    45   34   33 1 
    46   24   25 1 
    47  159  158 1 
    48  198  197 1 
    49  196  193 1 
    50  193  195 1 
    51  193  190 1 
    52  158  160 1 
    53  158  161 1 
    54   57   58 2 
    55   57   59 1 
    56  204  203 1 
    57   61   59 1 
    58   33   35 1 
    59   33   31 1 
    60   33   62 1 
    61  197   59 1 
    62  197  199 1 
    63  197  200 1 
    64   64   62 1 
    65   29   28 1 
    66   25   27 1 
    67   25   28 1 
    68   25   26 1 
    69   59   60 1 
    70   30   31 1 
    71   30   28 1 
    72   31   32 2 
    73  163  161 1 
    74  202  200 1 
    75   63   62 1 
    76   62   65 1 
    77  203  200 1 
    78  203  205 1 
    79  203  206 1 
    80   28   36 1 
    81  192  190 1 
    82  161  162 1 
    83  161  164 1 
    84  185  184 1 
    85  190  191 1 
    86  190  187 1 
    87  200  201 1 
    88  165  164 1 
    89  189  187 1 
    90  208  206 1 
    91  207  206 1 
    92  206  209 1 
    93  164  166 1 
    94  164  167 1 
    95  187  184 1 
    96  187  188 1 
    97  184  186 1 
    98  184  181 1 
    99  182  181 1 
   100   65   66 1 
   101   65   67 1 
   102   65   68 1 
   103   36   37 1 
   104   36   38 1 
   105   36   39 1 
   106   70   68 1 
   107  183  181 1 
   108   69   68 1 
   109  181  179 1 
   110   68   71 1 
   111  168  167 1 
   112  167  169 1 
   113  167  170 1 
   114   39   40 1 
   115  209  210 1 
   116  209  211 1 
   117  209  212 1 
   118  109  107 1 
   119   41   40 2 
   120   40   42 1 
   121  214  212 1 
   122  213  212 1 
   123   78   77 1 
   124   43   42 1 
   125  212  215 1 
   126  171  170 1 
   127  170  172 2 
   128  179  180 1 
   129  179  177 2 
   130  107   42 1 
   131  107  108 1 
   132  107  110 1 
   133   42   44 1 
   134   71   72 1 
   135   71   73 1 
   136   71   74 1 
   137   81   80 1 
   138  112  110 1 
   139  175  174 1 
   140  221  219 1 
   141   75   74 1 
   142   77   74 1 
   143   77   80 1 
   144   77   79 1 
   145  111  110 1 
   146  172  174 1 
   147  172  173 1 
   148  110  113 1 
   149   74   76 1 
   150   80   82 2 
   151  174  177 1 
   152  174  176 1 
   153  177  178 1 
   154  215  216 1 
   155  215  217 2 
   156  219  220 1 
   157  219  217 1 
   158  219  222 1 
   159  223  222 1 
   160  230  229 1 
   161   82   83 1 
   162   82   84 1 
   163  120  119 1 
   164  217  218 1 
   165  222  224 2 
   166  113  115 1 
   167  113  114 1 
   168  113  116 1 
   169  126  125 1 
   170  232  231 1 
   171   86   84 1 
   172  118  116 1 
   173  104  103 1 
   174  229  231 2 
   175  229  226 1 
   176   84   85 1 
   177   84   87 1 
   178  119  116 1 
   179  119  121 1 
   180  119  122 1 
   181  224  225 1 
   182  224  226 1 
   183  116  117 1 
   184  106  103 1 
   185  231  233 1 
   186  125  122 1 
   187  125  127 2 
   188  105  103 1 
   189   96   94 1 
   190  103  100 1 
   191  128  127 1 
   192  226  228 1 
   193  226  227 1 
   194  123  122 1 
   195  122  124 1 
   196  127  129 1 
   197   87   88 1 
   198   87   89 2 
   199  238  236 1 
   200   95   94 1 
   201   93   91 1 
   202  237  236 1 
   203   94   91 1 
   204   94   97 1 
   205  233  236 1 
   206  233  234 1 
   207  233  235 1 
   208  236  239 1 
   209  100  102 1 
   210  100   97 1 
   211  100  101 1 
   212   91   89 1 
   213   91   92 1 
   214   89   90 1 
   215   97   98 1 
   216   97   99 1 
   217  129  130 1 
   218  129  131 1 
   219  129  132 1 
   220  138  136 1 
   221  132  133 1 
   222  132  134 2 
   223  134  136 1 
   224  134  135 1 
   225  136  137 1 
   226  136  139 1 
   227  140  139 1 
   228  141  139 1 
   229  139  142 1 
   230  142  144 1 
   231  142  143 1 
   232  142  145 1 
   233  146  145 1 
   234  147  145 1 
   235  145  148 1 
   236  148  150 1 
   237  148  149 1 
   238  148  151 1 
