@<TRIPOS>MOLECULE
C:\Users\Praveer\PycharmProjects\pdb_to_mol2_converter\data\pdb\lndcl2.pdb
  238   237     0     0     0
SMALL
GASTEIGER

@<TRIPOS>ATOM
      1 C3          1.5470   -0.0320   -0.0150 C.3       1 LND1        0.0000
      2 HG31        1.9040   -0.5710    0.8930 H         1 LND1        0.0000
      3 HG32        1.8870   -0.6010   -0.9150 H         1 LND1        0.0000
      4 P3          3.6030    1.5260   -0.3090 P.3       1 LND1        0.0000
      5 OP33        4.3790    0.4060    0.2670 O.3       1 LND1        0.0000
      6 OP34        3.9800    2.9030    0.0710 O.2       1 LND1        0.0000
      7 OP31        2.0540    1.3110   -0.0240 O.3       1 LND1        0.0000
      8 OP32        3.6390    1.4150   -1.8930 O.3       1 LND1        0.0000
      9 C31         3.0590    2.4820   -2.6510 C.3       1 LND1        0.0000
     10 H31J        3.6970    3.3920   -2.5690 H         1 LND1        0.0000
     11 H31K        2.0400    2.7440   -2.2790 H         1 LND1        0.0000
     12 C2         -0.0020   -0.0450   -0.0160 C.3       1 LND1        0.0000
     13 HG22       -0.3660    0.4490    0.9130 H         1 LND1        0.0000
     14 OG12       -0.4130    0.7160   -1.1450 O.3       1 LND1        0.0000
     15 HO12        0.2500    1.4180   -1.1420 H         1 LND1        0.0000
     16 C1         -0.5800   -1.4870   -0.0700 C.3       1 LND1        0.0000
     17 HG11       -0.0300   -2.1040    0.6790 H         1 LND1        0.0000
     18 HG12       -0.3440   -1.9060   -1.0740 H         1 LND1        0.0000
     19 P1         -2.6230   -1.7680    1.5750 P.3       1 LND1        0.0000
     20 OP13       -2.1450   -0.7190    2.4970 O.3       1 LND1        0.0000
     21 OP14       -4.0890   -1.9480    1.4480 O.2       1 LND1        0.0000
     22 OP11       -1.9980   -1.5370    0.1340 O.3       1 LND1        0.0000
     23 OP12       -1.9670   -3.1510    2.0100 O.3       1 LND1        0.0000
     24 C11        -2.5550   -4.4150    1.6980 C.3       1 LND1        0.0000
     25 H11J       -3.6670   -4.3980    1.7860 H         1 LND1        0.0000
     26 H11K       -2.1750   -5.1510    2.4400 H         1 LND1        0.0000
     27 C12        -2.1500   -4.9070    0.2840 C.3       1 LND1        0.0000
     28 H12J       -1.0650   -4.6610    0.1760 H         1 LND1        0.0000
     29 O12        -2.9740   -4.2200   -0.6690 O.3       1 LND1        0.0000
     30 CA1        -2.3680   -3.8520   -1.7800 C.2       1 LND1        0.0000
     31 OA1        -1.2510   -4.1880   -2.1340 O.2       1 LND1        0.0000
     32 CA2        -3.2990   -2.9380   -2.5800 C.3       1 LND1        0.0000
     33 H2A        -2.8550   -1.9210   -2.5560 H         1 LND1        0.0000
     34 H2B        -4.2850   -2.8930   -2.0720 H         1 LND1        0.0000
     35 C13        -2.3380   -6.4410    0.1090 C.3       1 LND1        0.0000
     36 H13J       -3.4240   -6.6350   -0.0370 H         1 LND1        0.0000
     37 H13K       -2.0430   -6.9590    1.0510 H         1 LND1        0.0000
     38 O13        -1.6080   -6.9320   -1.0400 O.3       1 LND1        0.0000
     39 CB1        -0.3110   -7.1260   -0.7960 C.2       1 LND1        0.0000
     40 OB1         0.1910   -7.1970    0.3080 O.2       1 LND1        0.0000
     41 CB2         0.4580   -7.1990   -2.1150 C.3       1 LND1        0.0000
     42 H2D         0.2320   -6.2580   -2.6630 H         1 LND1        0.0000
     43 H2E         0.0860   -8.0520   -2.7120 H         1 LND1        0.0000
     44 C32         2.9580    2.0920   -4.1510 C.3       1 LND1        0.0000
     45 H32J        2.5720    2.9680   -4.7230 H         1 LND1        0.0000
     46 O32         2.0960    0.9510   -4.3280 O.3       1 LND1        0.0000
     47 CC1         0.8060    1.2310   -4.2120 C.2       1 LND1        0.0000
     48 OC1         0.3340    2.3440   -4.0750 O.2       1 LND1        0.0000
     49 CC2         0.0260   -0.0750   -4.3740 C.3       1 LND1        0.0000
     50 H2R         0.2240   -0.6870   -3.4670 H         1 LND1        0.0000
     51 H2S         0.4320   -0.6160   -5.2500 H         1 LND1        0.0000
     52 C33         4.3550    1.7610   -4.7390 C.3       1 LND1        0.0000
     53 H33J        4.7840    0.9360   -4.1240 H         1 LND1        0.0000
     54 H33K        5.0040    2.6590   -4.6270 H         1 LND1        0.0000
     55 O33         4.2390    1.3650   -6.1230 O.3       1 LND1        0.0000
     56 CD1         5.3970    1.0550   -6.6880 C.2       1 LND1        0.0000
     57 OD1         6.4970    1.2170   -6.1950 O.2       1 LND1        0.0000
     58 CD2         5.1180    0.4460   -8.0630 C.3       1 LND1        0.0000
     59 H2X         4.3050    1.0270   -8.5430 H         1 LND1        0.0000
     60 H2Y         4.7580   -0.5900   -7.8920 H         1 LND1        0.0000
     61 CA3        -3.4670   -3.4260   -4.0350 C.3       1 LND1        0.0000
     62 H3A        -3.7810   -4.4930   -4.0310 H         1 LND1        0.0000
     63 H3B        -2.4870   -3.3600   -4.5570 H         1 LND1        0.0000
     64 CA4        -4.5010   -2.6050   -4.8170 C.3       1 LND1        0.0000
     65 H4A        -4.1910   -1.5350   -4.7950 H         1 LND1        0.0000
     66 H4B        -5.4910   -2.6760   -4.3140 H         1 LND1        0.0000
     67 CA5        -4.6370   -3.0460   -6.2820 C.3       1 LND1        0.0000
     68 H5A        -3.6280   -3.0480   -6.7480 H         1 LND1        0.0000
     69 H5B        -5.2600   -2.2980   -6.8230 H         1 LND1        0.0000
     70 CA6        -5.2790   -4.4300   -6.4600 C.3       1 LND1        0.0000
     71 H6A        -6.2780   -4.4150   -5.9680 H         1 LND1        0.0000
     72 H6B        -4.6640   -5.2040   -5.9500 H         1 LND1        0.0000
     73 CA7        -5.4600   -4.8220   -7.9360 C.3       1 LND1        0.0000
     74 H7A        -5.9560   -3.9770   -8.4660 H         1 LND1        0.0000
     75 H7B        -6.1430   -5.7000   -7.9860 H         1 LND1        0.0000
     76 CA8        -4.1370   -5.1800   -8.6430 C.3       1 LND1        0.0000
     77 H8A        -3.7000   -6.0720   -8.1420 H         1 LND1        0.0000
     78 H8B        -3.4120   -4.3540   -8.4870 H         1 LND1        0.0000
     79 CA9        -4.3570   -5.4630  -10.1100 C.2       1 LND1        0.0000
     80 H9A        -4.8480   -6.4250  -10.3220 H         1 LND1        0.0000
     81 CA10       -4.0320   -4.6630  -11.1460 C.2       1 LND1        0.0000
     82 H10A       -4.2600   -5.0120  -12.1660 H         1 LND1        0.0000
     83 CA11       -3.3760   -3.3030  -11.0730 C.3       1 LND1        0.0000
     84 H11A       -2.3400   -3.3730  -11.4710 H         1 LND1        0.0000
     85 H11B       -3.2590   -2.9710  -10.0210 H         1 LND1        0.0000
     86 CA12       -4.1380   -2.2670  -11.8640 C.2       1 LND1        0.0000
     87 H12A       -3.9770   -2.3120  -12.9520 H         1 LND1        0.0000
     88 CA13       -4.9660   -1.3200  -11.3780 C.2       1 LND1        0.0000
     89 H13A       -5.4500   -0.6320  -12.0890 H         1 LND1        0.0000
     90 CA14       -5.3280   -1.0740   -9.9320 C.3       1 LND1        0.0000
     91 H14A       -4.8490   -1.8070   -9.2460 H         1 LND1        0.0000
     92 H14B       -6.4270   -1.1890   -9.7980 H         1 LND1        0.0000
     93 CA15       -4.9380    0.3470   -9.4830 C.3       1 LND1        0.0000
     94 H15A       -5.3980    1.0910  -10.1720 H         1 LND1        0.0000
     95 H15B       -3.8330    0.4700   -9.5380 H         1 LND1        0.0000
     96 CA16       -5.4040    0.6710   -8.0550 C.3       1 LND1        0.0000
     97 H16A       -4.9090   -0.0190   -7.3370 H         1 LND1        0.0000
     98 H16B       -6.5020    0.5010   -7.9840 H         1 LND1        0.0000
     99 CA17       -5.1030    2.1200   -7.6490 C.3       1 LND1        0.0000
    100 H17A       -5.5690    2.8060   -8.3930 H         1 LND1        0.0000
    101 H17B       -4.0030    2.2840   -7.6880 H         1 LND1        0.0000
    102 CA18       -5.6170    2.4790   -6.2520 C.3       1 LND1        0.0000
    103 H18A       -5.1600    1.8180   -5.4840 H         1 LND1        0.0000
    104 H18B       -6.7200    2.3630   -6.2010 H         1 LND1        0.0000
    105 H18C       -5.3610    3.5320   -6.0040 H         1 LND1        0.0000
    106 CB3         1.9860   -7.3010   -1.8890 C.3       1 LND1        0.0000
    107 H3D         2.2810   -8.3540   -1.6880 H         1 LND1        0.0000
    108 H3E         2.2640   -6.7010   -0.9880 H         1 LND1        0.0000
    109 CB4         2.8100   -6.7180   -3.0460 C.3       1 LND1        0.0000
    110 H4D         3.8600   -6.6080   -2.6940 H         1 LND1        0.0000
    111 H4E         2.4270   -5.6980   -3.2740 H         1 LND1        0.0000
    112 CB5         2.8070   -7.5620   -4.3290 C.3       1 LND1        0.0000
    113 H5D         1.7560   -7.7930   -4.6140 H         1 LND1        0.0000
    114 H5E         3.3210   -8.5270   -4.1240 H         1 LND1        0.0000
    115 CB6         3.4950   -6.8660   -5.5200 C.3       1 LND1        0.0000
    116 H6D         2.8730   -5.9990   -5.8350 H         1 LND1        0.0000
    117 H6E         3.5370   -7.5740   -6.3770 H         1 LND1        0.0000
    118 CB7         4.9110   -6.3490   -5.2160 C.3       1 LND1        0.0000
    119 H7D         5.5450   -7.2010   -4.8820 H         1 LND1        0.0000
    120 H7E         4.8550   -5.6150   -4.3800 H         1 LND1        0.0000
    121 CB8         5.5590   -5.6420   -6.4210 C.3       1 LND1        0.0000
    122 H8D         4.8760   -4.8190   -6.7310 H         1 LND1        0.0000
    123 H8E         5.6140   -6.3550   -7.2720 H         1 LND1        0.0000
    124 CB9         6.9370   -5.1240   -6.0840 C.2       1 LND1        0.0000
    125 H9D         7.6830   -5.9080   -5.8760 H         1 LND1        0.0000
    126 CB10        7.3130   -3.8320   -5.9920 C.2       1 LND1        0.0000
    127 H10D        8.3570   -3.6080   -5.7260 H         1 LND1        0.0000
    128 CB11        6.4510   -2.6130   -6.2260 C.3       1 LND1        0.0000
    129 H11D        5.6900   -2.8230   -7.0080 H         1 LND1        0.0000
    130 H11E        7.0890   -1.8090   -6.6560 H         1 LND1        0.0000
    131 CB12        5.8170   -2.0950   -4.9520 C.2       1 LND1        0.0000
    132 H12D        6.5340   -1.8300   -4.1580 H         1 LND1        0.0000
    133 CB13        4.5060   -1.8960   -4.7060 C.2       1 LND1        0.0000
    134 H13D        4.2090   -1.4940   -3.7210 H         1 LND1        0.0000
    135 CB14        3.3490   -2.1690   -5.6360 C.3       1 LND1        0.0000
    136 H14D        3.6850   -2.6270   -6.5890 H         1 LND1        0.0000
    137 H14E        2.8330   -1.2160   -5.8940 H         1 LND1        0.0000
    138 CB15        2.3240   -3.1220   -4.9970 C.3       1 LND1        0.0000
    139 H15D        1.8510   -2.6310   -4.1170 H         1 LND1        0.0000
    140 H15E        2.8490   -4.0330   -4.6350 H         1 LND1        0.0000
    141 CB16        1.2310   -3.5530   -5.9860 C.3       1 LND1        0.0000
    142 H16D        1.7090   -4.0670   -6.8460 H         1 LND1        0.0000
    143 H16E        0.7190   -2.6480   -6.3760 H         1 LND1        0.0000
    144 CB17        0.1880   -4.4920   -5.3710 C.3       1 LND1        0.0000
    145 H17D       -0.3040   -3.9710   -4.5180 H         1 LND1        0.0000
    146 H17E        0.7020   -5.3860   -4.9530 H         1 LND1        0.0000
    147 CB18       -0.8760   -4.9460   -6.3750 C.3       1 LND1        0.0000
    148 H18D       -0.4080   -5.5090   -7.2110 H         1 LND1        0.0000
    149 H18E       -1.4070   -4.0670   -6.7990 H         1 LND1        0.0000
    150 H18F       -1.6230   -5.6010   -5.8780 H         1 LND1        0.0000
    151 CC3        -1.5010    0.1260   -4.5130 C.3       1 LND1        0.0000
    152 H3R        -1.8900    0.6180   -3.5910 H         1 LND1        0.0000
    153 H3S        -1.9680   -0.8820   -4.5640 H         1 LND1        0.0000
    154 CC4        -1.9510    0.9370   -5.7430 C.3       1 LND1        0.0000
    155 H4R        -1.6850    2.0070   -5.5800 H         1 LND1        0.0000
    156 H4S        -3.0600    0.8800   -5.8010 H         1 LND1        0.0000
    157 CC5        -1.3600    0.4890   -7.0910 C.3       1 LND1        0.0000
    158 H5R        -0.2580    0.6350   -7.0700 H         1 LND1        0.0000
    159 H5S        -1.7680    1.1460   -7.8910 H         1 LND1        0.0000
    160 CC6        -1.6790   -0.9720   -7.4360 C.3       1 LND1        0.0000
    161 H6R        -2.7810   -1.1150   -7.3810 H         1 LND1        0.0000
    162 H6S        -1.2200   -1.6290   -6.6670 H         1 LND1        0.0000
    163 CC7        -1.1960   -1.4180   -8.8270 C.3       1 LND1        0.0000
    164 H7R        -1.8390   -0.9390   -9.6000 H         1 LND1        0.0000
    165 H7S        -1.3470   -2.5200   -8.8950 H         1 LND1        0.0000
    166 CC8         0.2780   -1.0820   -9.1220 C.3       1 LND1        0.0000
    167 H8R         0.8790   -1.3790   -8.2370 H         1 LND1        0.0000
    168 H8S         0.3790    0.0210   -9.2220 H         1 LND1        0.0000
    169 CC9         0.7490   -1.7590  -10.3880 C.2       1 LND1        0.0000
    170 H9R         0.0940   -1.6010  -11.2590 H         1 LND1        0.0000
    171 CC10        1.8340   -2.5440  -10.5360 C.2       1 LND1        0.0000
    172 H10R        2.0290   -2.9790  -11.5290 H         1 LND1        0.0000
    173 CC11        2.8560   -2.9050   -9.4850 C.3       1 LND1        0.0000
    174 H11R        2.5880   -2.4840   -8.4950 H         1 LND1        0.0000
    175 H11S        3.8220   -2.4260   -9.7440 H         1 LND1        0.0000
    176 CC12        2.9970   -4.4030   -9.3520 C.2       1 LND1        0.0000
    177 H12R        2.1000   -4.9060   -8.9570 H         1 LND1        0.0000
    178 CC13        4.0750   -5.1560   -9.6440 C.2       1 LND1        0.0000
    179 H13R        4.0130   -6.2440   -9.4870 H         1 LND1        0.0000
    180 CC14        5.3960   -4.6820  -10.1990 C.3       1 LND1        0.0000
    181 H14R        6.1880   -4.7940   -9.4240 H         1 LND1        0.0000
    182 H14S        5.3720   -3.6070  -10.4750 H         1 LND1        0.0000
    183 CC15        5.8350   -5.4760  -11.4450 C.3       1 LND1        0.0000
    184 H15R        5.9350   -6.5540  -11.1890 H         1 LND1        0.0000
    185 H15S        6.8420   -5.1140  -11.7530 H         1 LND1        0.0000
    186 CC16        4.8860   -5.3260  -12.6450 C.3       1 LND1        0.0000
    187 H16R        4.7250   -4.2450  -12.8540 H         1 LND1        0.0000
    188 H16S        3.8990   -5.7730  -12.3940 H         1 LND1        0.0000
    189 CC17        5.4340   -5.9960  -13.9120 C.3       1 LND1        0.0000
    190 H17R        5.6570   -7.0640  -13.6880 H         1 LND1        0.0000
    191 H17S        6.3960   -5.5070  -14.1860 H         1 LND1        0.0000
    192 CC18        4.4790   -5.9210  -15.1050 C.3       1 LND1        0.0000
    193 H18R        4.2320   -4.8630  -15.3400 H         1 LND1        0.0000
    194 H18S        3.5320   -6.4580  -14.8820 H         1 LND1        0.0000
    195 H18T        4.9450   -6.3830  -16.0010 H         1 LND1        0.0000
    196 CD3         6.3700    0.4140   -8.9700 C.3       1 LND1        0.0000
    197 H3X         7.2320    0.0010   -8.3960 H         1 LND1        0.0000
    198 H3Y         6.6350    1.4510   -9.2740 H         1 LND1        0.0000
    199 CD4         6.1840   -0.4570  -10.2240 C.3       1 LND1        0.0000
    200 H4X         6.0090   -1.5080   -9.9010 H         1 LND1        0.0000
    201 H4Y         7.1260   -0.4410  -10.8160 H         1 LND1        0.0000
    202 CD5         5.0180   -0.0190  -11.1220 C.3       1 LND1        0.0000
    203 H5X         5.1910    1.0200  -11.4810 H         1 LND1        0.0000
    204 H5Y         4.0790   -0.0190  -10.5250 H         1 LND1        0.0000
    205 CD6         4.8070   -0.9520  -12.3250 C.3       1 LND1        0.0000
    206 H6X         4.6910   -1.9910  -11.9420 H         1 LND1        0.0000
    207 H6Y         5.7010   -0.9330  -12.9850 H         1 LND1        0.0000
    208 CD7         3.5500   -0.5910  -13.1300 C.3       1 LND1        0.0000
    209 H7X         3.7050    0.3630  -13.6780 H         1 LND1        0.0000
    210 H7Y         2.7230   -0.4210  -12.4010 H         1 LND1        0.0000
    211 CD8         3.0950   -1.7000  -14.0990 C.3       1 LND1        0.0000
    212 H8X         2.0630   -1.4380  -14.4200 H         1 LND1        0.0000
    213 H8Y         3.0180   -2.6520  -13.5310 H         1 LND1        0.0000
    214 CD9         4.0090   -1.8860  -15.2860 C.2       1 LND1        0.0000
    215 H9X         5.0840   -1.8250  -15.0560 H         1 LND1        0.0000
    216 CD10        3.6280   -2.1100  -16.5590 C.2       1 LND1        0.0000
    217 H10X        4.4110   -2.2180  -17.3260 H         1 LND1        0.0000
    218 CD11        2.2120   -2.2560  -17.0740 C.3       1 LND1        0.0000
    219 H11X        2.1300   -1.7540  -18.0650 H         1 LND1        0.0000
    220 H11Y        1.4900   -1.7170  -16.4210 H         1 LND1        0.0000
    221 CD12        1.8270   -3.7120  -17.2200 C.2       1 LND1        0.0000
    222 H12X        2.2630   -4.2080  -18.1010 H         1 LND1        0.0000
    223 CD13        1.0330   -4.4490  -16.4140 C.2       1 LND1        0.0000
    224 H13X        0.8710   -5.5080  -16.6720 H         1 LND1        0.0000
    225 CD14        0.3230   -4.0090  -15.1550 C.3       1 LND1        0.0000
    226 H14X       -0.7750   -4.1300  -15.2920 H         1 LND1        0.0000
    227 H14Y        0.4730   -2.9260  -14.9660 H         1 LND1        0.0000
    228 CD15        0.8040   -4.7820  -13.9480 C.2       1 LND1        0.0000
    229 H15X        1.8860   -4.9890  -13.8960 H         1 LND1        0.0000
    230 CD16        0.0100   -5.2340  -12.9620 C.2       1 LND1        0.0000
    231 H16X       -1.0720   -5.0300  -13.0010 H         1 LND1        0.0000
    232 CD17        0.4910   -5.9970  -11.7530 C.3       1 LND1        0.0000
    233 H17X        1.5610   -5.7870  -11.5350 H         1 LND1        0.0000
    234 H17Y        0.4210   -7.0920  -11.9340 H         1 LND1        0.0000
    235 CD18       -0.3380   -5.6550  -10.5080 C.3       1 LND1        0.0000
    236 H18X       -1.4030   -5.9320  -10.6640 H         1 LND1        0.0000
    237 H18Y       -0.2780   -4.5690  -10.2790 H         1 LND1        0.0000
    238 H18Z        0.0410   -6.2190   -9.6280 H         1 LND1        0.0000
@<TRIPOS>BOND
     1  222  221 1 
     2  219  218 1 
     3  217  216 1 
     4  221  218 1 
     5  221  223 2 
     6  218  216 1 
     7  218  220 1 
     8  224  223 1 
     9  216  214 2 
    10  223  225 1 
    11  195  192 1 
    12  193  192 1 
    13  226  225 1 
    14  214  215 1 
    15  214  211 1 
    16  225  227 1 
    17  225  228 1 
    18  192  194 1 
    19  192  189 1 
    20  212  211 1 
    21  191  189 1 
    22  211  213 1 
    23  211  208 1 
    24  228  229 1 
    25  228  230 2 
    26  189  190 1 
    27  189  186 1 
    28  209  208 1 
    29  208  210 1 
    30  208  205 1 
    31  231  230 1 
    32  207  205 1 
    33  230  232 1 
    34   87   86 1 
    35  187  186 1 
    36  186  188 1 
    37  186  183 1 
    38  205  206 1 
    39  205  202 1 
    40   82   81 1 
    41   89   88 1 
    42  234  232 1 
    43   86   88 2 
    44   86   83 1 
    45  232  233 1 
    46  232  235 1 
    47  185  183 1 
    48  172  171 1 
    49  203  202 1 
    50   84   83 1 
    51  183  184 1 
    52  183  180 1 
    53   88   90 1 
    54  170  169 1 
    55   81   83 1 
    56   81   79 2 
    57  202  204 1 
    58  202  199 1 
    59   83   85 1 
    60  201  199 1 
    61  236  235 1 
    62  171  169 2 
    63  171  173 1 
    64  235  237 1 
    65  235  238 1 
    66  182  180 1 
    67  169  166 1 
    68   80   79 1 
    69  199  200 1 
    70  199  196 1 
    71  180  178 1 
    72  180  181 1 
    73   94   93 1 
    74   79   76 1 
    75   90   92 1 
    76   90   93 1 
    77   90   91 1 
    78  175  173 1 
    79  178  179 1 
    80  178  176 2 
    81  164  163 1 
    82   95   93 1 
    83  173  176 1 
    84  173  174 1 
    85   93   96 1 
    86  176  177 1 
    87  198  196 1 
    88  168  166 1 
    89  166  163 1 
    90  166  167 1 
    91  196  197 1 
    92  196   58 1 
    93  165  163 1 
    94  163  160 1 
    95   76   78 1 
    96   76   77 1 
    97   76   73 1 
    98   59   58 1 
    99   74   73 1 
   100  100   99 1 
   101   58   60 1 
   102   58   56 1 
   103   96   98 1 
   104   96   99 1 
   105   96   97 1 
   106   75   73 1 
   107   73   70 1 
   108  159  157 1 
   109  101   99 1 
   110   99  102 1 
   111  160  161 1 
   112  160  157 1 
   113  160  162 1 
   114  123  121 1 
   115  148  147 1 
   116  157  158 1 
   117  157  154 1 
   118  129  128 1 
   119  142  141 1 
   120   69   67 1 
   121  149  147 1 
   122   68   67 1 
   123  122  121 1 
   124   56   57 2 
   125   56   55 1 
   126  130  128 1 
   127  136  135 1 
   128   70   67 1 
   129   70   71 1 
   130   70   72 1 
   131  121  124 1 
   132  121  118 1 
   133  117  115 1 
   134  143  141 1 
   135  147  150 1 
   136  147  144 1 
   137   67   64 1 
   138  102  104 1 
   139  102  105 1 
   140  102  103 1 
   141  128  126 1 
   142  128  131 1 
   143   55   52 1 
   144  124  126 2 
   145  124  125 1 
   146  126  127 1 
   147  141  144 1 
   148  141  138 1 
   149  137  135 1 
   150  116  115 1 
   151  156  154 1 
   152  154  155 1 
   153  154  151 1 
   154  135  138 1 
   155  135  133 1 
   156  115  118 1 
   157  115  112 1 
   158  144  146 1 
   159  144  145 1 
   160   51   49 1 
   161  118  119 1 
   162  118  120 1 
   163  138  140 1 
   164  138  139 1 
   165  131  133 2 
   166  131  132 1 
   167   64   65 1 
   168   64   66 1 
   169   64   61 1 
   170   52   54 1 
   171   52   44 1 
   172   52   53 1 
   173   45   44 1 
   174  133  134 1 
   175  113  112 1 
   176  153  151 1 
   177   63   61 1 
   178  151   49 1 
   179  151  152 1 
   180   49   47 1 
   181   49   50 1 
   182  112  114 1 
   183  112  109 1 
   184   46   47 1 
   185   46   44 1 
   186   47   48 2 
   187   44    9 1 
   188   61   62 1 
   189   61   32 1 
   190  111  109 1 
   191  109  110 1 
   192  109  106 1 
   193   43   41 1 
   194   42   41 1 
   195    9   10 1 
   196    9   11 1 
   197    9    8 1 
   198   32   33 1 
   199   32   34 1 
   200   32   30 1 
   201   31   30 2 
   202   41  106 1 
   203   41   39 1 
   204    8    4 1 
   205  106  107 1 
   206  106  108 1 
   207   30   29 1 
   208   14   15 1 
   209   14   12 1 
   210   18   16 1 
   211   38   39 1 
   212   38   35 1 
   213    3    1 1 
   214   39   40 2 
   215   29   27 1 
   216    4    7 1 
   217    4    6 2 
   218    4    5 1 
   219   16   12 1 
   220   16   22 1 
   221   16   17 1 
   222   36   35 1 
   223    7    1 1 
   224   12    1 1 
   225   12   13 1 
   226    1    2 1 
   227   35   27 1 
   228   35   37 1 
   229   22   19 1 
   230   28   27 1 
   231   27   24 1 
   232   21   19 2 
   233   19   23 1 
   234   19   20 1 
   235   24   25 1 
   236   24   23 1 
   237   24   26 1 
