@<TRIPOS>MOLECULE
C:\Users\Praveer\PycharmProjects\pdb_to_mol2_converter\data\pdb\loacl1.pdb
  243   242     0     0     0
SMALL
GASTEIGER

@<TRIPOS>ATOM
      1 C3          1.5560    0.0080    0.0130 C.3       1 LOA1        0.0000
      2 HG31        1.9040   -0.5980    0.8840 H         1 LOA1        0.0000
      3 HG32        1.9160   -0.5050   -0.9070 H         1 LOA1        0.0000
      4 P3          2.9850    1.9020    1.1760 P.3       1 LOA1        0.0000
      5 OP33        2.1150    2.2190    2.3280 O.3       1 LOA1        0.0000
      6 OP34        3.8590    2.9670    0.6470 O.2       1 LOA1        0.0000
      7 OP31        2.0730    1.3370    0.0110 O.3       1 LOA1        0.0000
      8 OP32        3.8690    0.6460    1.5570 O.3       1 LOA1        0.0000
      9 C31         4.8630    0.1820    0.6420 C.3       1 LOA1        0.0000
     10 H31J        5.5900    0.9930    0.3980 H         1 LOA1        0.0000
     11 H31K        4.3960   -0.1520   -0.3110 H         1 LOA1        0.0000
     12 C2          0.0070   -0.0040    0.0220 C.3       1 LOA1        0.0000
     13 HG22       -0.3640    0.5700   -0.8570 H         1 LOA1        0.0000
     14 OG12       -0.4110   -1.3650   -0.1090 O.3       1 LOA1        0.0000
     15 HO12        0.0070   -1.6840   -0.9140 H         1 LOA1        0.0000
     16 C1         -0.6110    0.6340    1.3010 C.3       1 LOA1        0.0000
     17 HG11        0.1520    0.5030    2.1090 H         1 LOA1        0.0000
     18 HG12       -1.5180    0.0510    1.5820 H         1 LOA1        0.0000
     19 P1         -1.1570    2.9050    2.3390 P.3       1 LOA1        0.0000
     20 OP13        0.0750    3.8610    2.4910 O.3       1 LOA1        0.0000
     21 HP13        0.9020    3.3410    2.4100 H         1 LOA1        0.0000
     22 OP14       -2.3940    3.7040    2.3540 O.2       1 LOA1        0.0000
     23 OP11       -0.9870    1.9990    1.0660 O.3       1 LOA1        0.0000
     24 OP12       -1.1230    1.9130    3.5520 O.3       1 LOA1        0.0000
     25 C11        -0.9580    2.4530    4.8620 C.3       1 LOA1        0.0000
     26 H11J       -1.6200    1.8710    5.5400 H         1 LOA1        0.0000
     27 H11K       -1.2630    3.5230    4.9650 H         1 LOA1        0.0000
     28 C12         0.5040    2.2760    5.3810 C.3       1 LOA1        0.0000
     29 H12J        1.1340    2.9990    4.8090 H         1 LOA1        0.0000
     30 O12         0.9430    0.9310    5.0970 O.3       1 LOA1        0.0000
     31 CA1         2.2670    0.7750    5.1490 C.2       1 LOA1        0.0000
     32 OA1         3.0580    1.6110    5.5420 O.2       1 LOA1        0.0000
     33 CA2         2.6220   -0.6120    4.6160 C.3       1 LOA1        0.0000
     34 H2A         2.8340   -0.4910    3.5320 H         1 LOA1        0.0000
     35 H2B         1.7470   -1.2820    4.7320 H         1 LOA1        0.0000
     36 C13         0.6060    2.6280    6.8970 C.3       1 LOA1        0.0000
     37 H13J        0.4670    3.7290    6.9790 H         1 LOA1        0.0000
     38 H13K        1.6220    2.4170    7.2980 H         1 LOA1        0.0000
     39 O13        -0.4350    1.9880    7.6630 O.3       1 LOA1        0.0000
     40 CB1        -0.1550    0.7710    8.1240 C.2       1 LOA1        0.0000
     41 OB1         0.9070    0.1950    8.0300 O.2       1 LOA1        0.0000
     42 CB2        -1.3990    0.2190    8.8200 C.3       1 LOA1        0.0000
     43 H2D        -2.3020    0.6190    8.3160 H         1 LOA1        0.0000
     44 H2E        -1.3820    0.5880    9.8660 H         1 LOA1        0.0000
     45 C32         5.6500   -0.9990    1.2710 C.3       1 LOA1        0.0000
     46 H32J        6.3330   -1.4310    0.5040 H         1 LOA1        0.0000
     47 O32         4.7600   -2.0080    1.7820 O.3       1 LOA1        0.0000
     48 CC1         4.0880   -2.6810    0.8730 C.2       1 LOA1        0.0000
     49 OC1         4.2540   -2.6390   -0.3320 O.2       1 LOA1        0.0000
     50 CC2         3.0550   -3.5630    1.5770 C.3       1 LOA1        0.0000
     51 H2R         2.4870   -4.1120    0.8000 H         1 LOA1        0.0000
     52 H2S         2.3620   -2.8790    2.1070 H         1 LOA1        0.0000
     53 C33         6.5310   -0.4960    2.4450 C.3       1 LOA1        0.0000
     54 H33J        5.8320   -0.0140    3.1730 H         1 LOA1        0.0000
     55 H33K        7.2370    0.2780    2.0710 H         1 LOA1        0.0000
     56 O33         7.2540   -1.6010    3.0310 O.3       1 LOA1        0.0000
     57 CD1         7.6290   -1.4060    4.2870 C.2       1 LOA1        0.0000
     58 OD1         7.6090   -0.3470    4.8830 O.2       1 LOA1        0.0000
     59 CD2         8.0420   -2.7420    4.9020 C.3       1 LOA1        0.0000
     60 H2X         8.1790   -2.5650    5.9900 H         1 LOA1        0.0000
     61 H2Y         9.0110   -3.0520    4.4650 H         1 LOA1        0.0000
     62 CA3         3.8580   -1.2200    5.3130 C.3       1 LOA1        0.0000
     63 H3A         4.7140   -0.5070    5.2710 H         1 LOA1        0.0000
     64 H3B         4.1590   -2.1270    4.7440 H         1 LOA1        0.0000
     65 CA4         3.5870   -1.6190    6.7700 C.3       1 LOA1        0.0000
     66 H4A         2.6670   -2.2400    6.8280 H         1 LOA1        0.0000
     67 H4B         3.4030   -0.6920    7.3620 H         1 LOA1        0.0000
     68 CA5         4.7570   -2.3880    7.3980 C.3       1 LOA1        0.0000
     69 H5A         5.6990   -1.8580    7.1310 H         1 LOA1        0.0000
     70 H5B         4.8030   -3.4100    6.9620 H         1 LOA1        0.0000
     71 CA6         4.6560   -2.4830    8.9270 C.3       1 LOA1        0.0000
     72 H6A         3.6710   -2.9230    9.1980 H         1 LOA1        0.0000
     73 H6B         4.6830   -1.4530    9.3470 H         1 LOA1        0.0000
     74 CA7         5.7680   -3.3260    9.5790 C.3       1 LOA1        0.0000
     75 H7A         5.6190   -4.3890    9.2830 H         1 LOA1        0.0000
     76 H7B         5.6530   -3.2700   10.6850 H         1 LOA1        0.0000
     77 CA8         7.2120   -2.9230    9.2040 C.3       1 LOA1        0.0000
     78 H8A         7.3520   -3.0920    8.1150 H         1 LOA1        0.0000
     79 H8B         7.9010   -3.6350    9.7100 H         1 LOA1        0.0000
     80 CA9         7.5450   -1.4880    9.5340 C.2       1 LOA1        0.0000
     81 H9A         7.1770   -0.7560    8.7970 H         1 LOA1        0.0000
     82 CA10        8.2280   -1.0330   10.6050 C.2       1 LOA1        0.0000
     83 H10A        8.3810    0.0540   10.7040 H         1 LOA1        0.0000
     84 CA11        8.7930   -1.8520   11.7380 C.3       1 LOA1        0.0000
     85 H11A        9.8370   -1.5410   11.9590 H         1 LOA1        0.0000
     86 H11B        8.8380   -2.9330   11.4860 H         1 LOA1        0.0000
     87 CA12        7.9320   -1.6660   13.0050 C.3       1 LOA1        0.0000
     88 H12A        6.8810   -1.9540   12.7710 H         1 LOA1        0.0000
     89 H12B        7.9260   -0.5890   13.2890 H         1 LOA1        0.0000
     90 CA13        8.4020   -2.4890   14.2190 C.3       1 LOA1        0.0000
     91 H13A        7.6870   -2.3360   15.0560 H         1 LOA1        0.0000
     92 H13B        9.3890   -2.0940   14.5530 H         1 LOA1        0.0000
     93 CA14        8.5550   -3.9990   13.9590 C.3       1 LOA1        0.0000
     94 H14A        8.8000   -4.5190   14.9110 H         1 LOA1        0.0000
     95 H14B        9.4300   -4.1320   13.2870 H         1 LOA1        0.0000
     96 CA15        7.3470   -4.6930   13.3030 C.3       1 LOA1        0.0000
     97 H15A        7.6710   -5.7130   12.9980 H         1 LOA1        0.0000
     98 H15B        7.0510   -4.1600   12.3740 H         1 LOA1        0.0000
     99 CA16        6.1280   -4.8450   14.2240 C.3       1 LOA1        0.0000
    100 H16A        5.6310   -3.8570   14.3280 H         1 LOA1        0.0000
    101 H16B        6.4730   -5.1570   15.2350 H         1 LOA1        0.0000
    102 CA17        5.1210   -5.8900   13.7130 C.3       1 LOA1        0.0000
    103 H17A        4.2760   -5.9560   14.4360 H         1 LOA1        0.0000
    104 H17B        5.6250   -6.8840   13.7040 H         1 LOA1        0.0000
    105 CA18        4.5620   -5.6070   12.3160 C.3       1 LOA1        0.0000
    106 H18A        5.3740   -5.6000   11.5590 H         1 LOA1        0.0000
    107 H18B        4.0560   -4.6190   12.2950 H         1 LOA1        0.0000
    108 H18C        3.8230   -6.3830   12.0230 H         1 LOA1        0.0000
    109 CB3        -1.4330   -1.3250    8.7960 C.3       1 LOA1        0.0000
    110 H3D        -0.5100   -1.7290    9.2700 H         1 LOA1        0.0000
    111 H3E        -1.4330   -1.6750    7.7370 H         1 LOA1        0.0000
    112 CB4        -2.6640   -1.9190    9.5010 C.3       1 LOA1        0.0000
    113 H4D        -2.6260   -3.0270    9.4020 H         1 LOA1        0.0000
    114 H4E        -3.5830   -1.5750    8.9750 H         1 LOA1        0.0000
    115 CB5        -2.7910   -1.5660   10.9960 C.3       1 LOA1        0.0000
    116 H5D        -3.6460   -2.1390   11.4220 H         1 LOA1        0.0000
    117 H5E        -3.0400   -0.4850   11.0930 H         1 LOA1        0.0000
    118 CB6        -1.5350   -1.8530   11.8390 C.3       1 LOA1        0.0000
    119 H6D        -1.7460   -1.5950   12.9010 H         1 LOA1        0.0000
    120 H6E        -0.7150   -1.1840   11.4980 H         1 LOA1        0.0000
    121 CB7        -1.0630   -3.3160   11.7760 C.3       1 LOA1        0.0000
    122 H7D        -0.8590   -3.6030   10.7210 H         1 LOA1        0.0000
    123 H7E        -1.8890   -3.9680   12.1380 H         1 LOA1        0.0000
    124 CB8         0.1950   -3.6000   12.6220 C.3       1 LOA1        0.0000
    125 H8D         0.4100   -4.6910   12.5600 H         1 LOA1        0.0000
    126 H8E        -0.0500   -3.3720   13.6840 H         1 LOA1        0.0000
    127 CB9         1.3960   -2.8200   12.1440 C.2       1 LOA1        0.0000
    128 H9D         1.4080   -2.6100   11.0620 H         1 LOA1        0.0000
    129 CB10        2.3920   -2.3370   12.9080 C.2       1 LOA1        0.0000
    130 H10D        3.2060   -1.7730   12.4220 H         1 LOA1        0.0000
    131 CB11        2.5560   -2.5220   14.3970 C.3       1 LOA1        0.0000
    132 H11D        3.5180   -3.0440   14.5850 H         1 LOA1        0.0000
    133 H11E        1.7810   -3.2010   14.8160 H         1 LOA1        0.0000
    134 CB12        2.4980   -1.2040   15.1320 C.2       1 LOA1        0.0000
    135 H12D        1.4970   -0.7480   15.1820 H         1 LOA1        0.0000
    136 CB13        3.5290   -0.5750   15.7290 C.2       1 LOA1        0.0000
    137 H13D        3.3440    0.3770   16.2510 H         1 LOA1        0.0000
    138 CB14        4.9600   -1.0530   15.7550 C.3       1 LOA1        0.0000
    139 H14D        5.6550   -0.1850   15.8040 H         1 LOA1        0.0000
    140 H14E        5.2060   -1.5960   14.8150 H         1 LOA1        0.0000
    141 CB15        5.2540   -1.9920   16.9410 C.3       1 LOA1        0.0000
    142 H15D        6.2830   -2.4010   16.8190 H         1 LOA1        0.0000
    143 H15E        4.5530   -2.8570   16.9200 H         1 LOA1        0.0000
    144 CB16        5.1740   -1.3070   18.3140 C.3       1 LOA1        0.0000
    145 H16D        4.1390   -0.9380   18.4870 H         1 LOA1        0.0000
    146 H16E        5.8540   -0.4250   18.3210 H         1 LOA1        0.0000
    147 CB17        5.5650   -2.2490   19.4590 C.3       1 LOA1        0.0000
    148 H17D        6.5980   -2.6240   19.2770 H         1 LOA1        0.0000
    149 H17E        4.8830   -3.1300   19.4430 H         1 LOA1        0.0000
    150 CB18        5.5060   -1.5910   20.8400 C.3       1 LOA1        0.0000
    151 H18D        4.4770   -1.2290   21.0540 H         1 LOA1        0.0000
    152 H18E        6.2000   -0.7250   20.8890 H         1 LOA1        0.0000
    153 H18F        5.7940   -2.3170   21.6310 H         1 LOA1        0.0000
    154 CC3         3.7110   -4.5540    2.5670 C.3       1 LOA1        0.0000
    155 H3R         4.3730   -3.9900    3.2650 H         1 LOA1        0.0000
    156 H3S         4.3510   -5.2760    2.0100 H         1 LOA1        0.0000
    157 CC4         2.7000   -5.3320    3.4240 C.3       1 LOA1        0.0000
    158 H4R         3.2720   -5.9690    4.1380 H         1 LOA1        0.0000
    159 H4S         2.0930   -6.0090    2.7850 H         1 LOA1        0.0000
    160 CC5         1.7650   -4.4140    4.2240 C.3       1 LOA1        0.0000
    161 H5R         0.9300   -4.0730    3.5730 H         1 LOA1        0.0000
    162 H5S         2.3360   -3.5120    4.5390 H         1 LOA1        0.0000
    163 CC6         1.2110   -5.0690    5.4930 C.3       1 LOA1        0.0000
    164 H6R         2.0660   -5.2800    6.1740 H         1 LOA1        0.0000
    165 H6S         0.7310   -6.0400    5.2410 H         1 LOA1        0.0000
    166 CC7         0.1900   -4.1730    6.2130 C.3       1 LOA1        0.0000
    167 H7R        -0.7390   -4.1470    5.5990 H         1 LOA1        0.0000
    168 H7S         0.5760   -3.1300    6.2610 H         1 LOA1        0.0000
    169 CC8        -0.1600   -4.6640    7.6300 C.3       1 LOA1        0.0000
    170 H8R        -0.4730   -5.7290    7.5590 H         1 LOA1        0.0000
    171 H8S        -1.0440   -4.0910    7.9860 H         1 LOA1        0.0000
    172 CC9         0.9880   -4.4550    8.5900 C.2       1 LOA1        0.0000
    173 H9R         1.4630   -3.4640    8.5110 H         1 LOA1        0.0000
    174 CC10        1.4850   -5.3350    9.4800 C.2       1 LOA1        0.0000
    175 H10R        2.3340   -5.0160   10.1070 H         1 LOA1        0.0000
    176 CC11        0.9920   -6.7370    9.7570 C.3       1 LOA1        0.0000
    177 H11R        0.2100   -7.0460    9.0290 H         1 LOA1        0.0000
    178 H11S        0.4850   -6.7500   10.7460 H         1 LOA1        0.0000
    179 CC12        2.1050   -7.7580    9.7640 C.2       1 LOA1        0.0000
    180 H12R        2.4810   -8.0260   10.7640 H         1 LOA1        0.0000
    181 CC13        2.6570   -8.3460    8.6860 C.2       1 LOA1        0.0000
    182 H13R        3.4650   -9.0770    8.8380 H         1 LOA1        0.0000
    183 CC14        2.2790   -8.1080    7.2430 C.3       1 LOA1        0.0000
    184 H14R        3.1230   -7.6260    6.7020 H         1 LOA1        0.0000
    185 H14S        1.4170   -7.4090    7.1660 H         1 LOA1        0.0000
    186 CC15        1.8950   -9.4000    6.4930 C.3       1 LOA1        0.0000
    187 H15R        1.4760   -9.1040    5.5050 H         1 LOA1        0.0000
    188 H15S        1.0900   -9.9320    7.0480 H         1 LOA1        0.0000
    189 CC16        3.0770  -10.3550    6.2560 C.3       1 LOA1        0.0000
    190 H16R        3.5300  -10.6270    7.2350 H         1 LOA1        0.0000
    191 H16S        3.8540   -9.8270    5.6600 H         1 LOA1        0.0000
    192 CC17        2.6890  -11.6550    5.5320 C.3       1 LOA1        0.0000
    193 H17R        1.9240  -12.1880    6.1420 H         1 LOA1        0.0000
    194 H17S        3.5900  -12.3100    5.4860 H         1 LOA1        0.0000
    195 CC18        2.1530  -11.4600    4.1100 C.3       1 LOA1        0.0000
    196 H18R        2.8920  -10.9110    3.4880 H         1 LOA1        0.0000
    197 H18S        1.2040  -10.8830    4.1200 H         1 LOA1        0.0000
    198 H18T        1.9540  -12.4440    3.6320 H         1 LOA1        0.0000
    199 CD3         6.9660   -3.8270    4.6760 C.3       1 LOA1        0.0000
    200 H3X         6.9320   -4.1080    3.5990 H         1 LOA1        0.0000
    201 H3Y         5.9660   -3.4160    4.9430 H         1 LOA1        0.0000
    202 CD4         7.1900   -5.0820    5.5250 C.3       1 LOA1        0.0000
    203 H4X         7.2630   -4.7810    6.5930 H         1 LOA1        0.0000
    204 H4Y         8.1540   -5.5570    5.2390 H         1 LOA1        0.0000
    205 CD5         6.0490   -6.0970    5.3620 C.3       1 LOA1        0.0000
    206 H5X         5.9680   -6.3630    4.2830 H         1 LOA1        0.0000
    207 H5Y         5.0880   -5.6220    5.6640 H         1 LOA1        0.0000
    208 CD6         6.2500   -7.3840    6.1740 C.3       1 LOA1        0.0000
    209 H6X         7.2400   -7.8240    5.9200 H         1 LOA1        0.0000
    210 H6Y         5.4680   -8.1200    5.8800 H         1 LOA1        0.0000
    211 CD7         6.1630   -7.1680    7.6920 C.3       1 LOA1        0.0000
    212 H7X         5.1620   -6.7490    7.9400 H         1 LOA1        0.0000
    213 H7Y         6.9260   -6.4180    7.9990 H         1 LOA1        0.0000
    214 CD8         6.3990   -8.4700    8.4790 C.3       1 LOA1        0.0000
    215 H8X         7.3890   -8.8830    8.1780 H         1 LOA1        0.0000
    216 H8Y         5.6410   -9.2220    8.1690 H         1 LOA1        0.0000
    217 CD9         6.3380   -8.2430    9.9690 C.2       1 LOA1        0.0000
    218 H9X         5.3630   -8.4440   10.4380 H         1 LOA1        0.0000
    219 CD10        7.3570   -7.8190   10.7400 C.2       1 LOA1        0.0000
    220 H10X        7.1830   -7.6860   11.8200 H         1 LOA1        0.0000
    221 CD11        8.7480   -7.4650   10.2720 C.3       1 LOA1        0.0000
    222 H11X        8.9220   -6.3840   10.4650 H         1 LOA1        0.0000
    223 H11Y        8.8500   -7.5730    9.1700 H         1 LOA1        0.0000
    224 CD12        9.7960   -8.3260   10.9380 C.2       1 LOA1        0.0000
    225 H12X        9.7710   -9.3870   10.6420 H         1 LOA1        0.0000
    226 CD13       10.7390   -7.9220   11.8110 C.2       1 LOA1        0.0000
    227 H13X       11.4520   -8.6640   12.2050 H         1 LOA1        0.0000
    228 CD14       10.9280   -6.5200   12.3350 C.3       1 LOA1        0.0000
    229 H14X       11.1300   -6.5500   13.4280 H         1 LOA1        0.0000
    230 H14Y       10.0020   -5.9190   12.2060 H         1 LOA1        0.0000
    231 CD15       12.0750   -5.7750   11.6260 C.3       1 LOA1        0.0000
    232 H15X       11.9320   -5.8530   10.5230 H         1 LOA1        0.0000
    233 H15Y       13.0460   -6.2550   11.8760 H         1 LOA1        0.0000
    234 CD16       12.1430   -4.2780   11.9790 C.3       1 LOA1        0.0000
    235 H16X       11.1800   -3.7960   11.6970 H         1 LOA1        0.0000
    236 H16Y       12.9430   -3.8040   11.3670 H         1 LOA1        0.0000
    237 CD17       12.4310   -3.9960   13.4600 C.3       1 LOA1        0.0000
    238 H17X       13.3980   -4.4770   13.7330 H         1 LOA1        0.0000
    239 H17Y       11.6390   -4.4620   14.0870 H         1 LOA1        0.0000
    240 CD18       12.4990   -2.5020   13.7860 C.3       1 LOA1        0.0000
    241 H18X       11.5330   -2.0090   13.5450 H         1 LOA1        0.0000
    242 H18Y       13.3000   -2.0090   13.1930 H         1 LOA1        0.0000
    243 H18Z       12.7130   -2.3460   14.8650 H         1 LOA1        0.0000
@<TRIPOS>BOND
     1   15   14 1 
     2    3    1 1 
     3   13   12 1 
     4   49   48 2 
     5   11    9 1 
     6   14   12 1 
     7    7    1 1 
     8    7    4 1 
     9    1   12 1 
    10    1    2 1 
    11   12   16 1 
    12   10    9 1 
    13   46   45 1 
    14    9   45 1 
    15    9    8 1 
    16    6    4 2 
    17   51   50 1 
    18   48   50 1 
    19   48   47 1 
    20   23   16 1 
    21   23   19 1 
    22    4    8 1 
    23    4    5 1 
    24   45   47 1 
    25   45   53 1 
    26   16   18 1 
    27   16   17 1 
    28   50   52 1 
    29   50  154 1 
    30  156  154 1 
    31   55   53 1 
    32   19   22 2 
    33   19   20 1 
    34   19   24 1 
    35   21   20 1 
    36   53   56 1 
    37   53   54 1 
    38  154  155 1 
    39  154  157 1 
    40  159  157 1 
    41   56   57 1 
    42  157  158 1 
    43  157  160 1 
    44  196  195 1 
    45   34   33 1 
    46   24   25 1 
    47  161  160 1 
    48  200  199 1 
    49  198  195 1 
    50  195  197 1 
    51  195  192 1 
    52  160  162 1 
    53  160  163 1 
    54  206  205 1 
    55   57   58 2 
    56   57   59 1 
    57   61   59 1 
    58   33   35 1 
    59   33   31 1 
    60   33   62 1 
    61  199   59 1 
    62  199  201 1 
    63  199  202 1 
    64   64   62 1 
    65   29   28 1 
    66   25   27 1 
    67   25   28 1 
    68   25   26 1 
    69   59   60 1 
    70   30   31 1 
    71   30   28 1 
    72   31   32 2 
    73  204  202 1 
    74  165  163 1 
    75   63   62 1 
    76   62   65 1 
    77  205  202 1 
    78  205  207 1 
    79  205  208 1 
    80   28   36 1 
    81  194  192 1 
    82  163  164 1 
    83  163  166 1 
    84  187  186 1 
    85  202  203 1 
    86  192  193 1 
    87  192  189 1 
    88  167  166 1 
    89  191  189 1 
    90  210  208 1 
    91  209  208 1 
    92  208  211 1 
    93  166  168 1 
    94  166  169 1 
    95  189  186 1 
    96  189  190 1 
    97  186  188 1 
    98  186  183 1 
    99  184  183 1 
   100   65   66 1 
   101   65   67 1 
   102   65   68 1 
   103   36   37 1 
   104   36   38 1 
   105   36   39 1 
   106   70   68 1 
   107   69   68 1 
   108  185  183 1 
   109  183  181 1 
   110   68   71 1 
   111  170  169 1 
   112  169  171 1 
   113  169  172 1 
   114   39   40 1 
   115  211  212 1 
   116  211  213 1 
   117  211  214 1 
   118  111  109 1 
   119   41   40 2 
   120   78   77 1 
   121   40   42 1 
   122  216  214 1 
   123  215  214 1 
   124   43   42 1 
   125  214  217 1 
   126  173  172 1 
   127  172  174 2 
   128  181  182 1 
   129  181  179 2 
   130  109   42 1 
   131  109  110 1 
   132  109  112 1 
   133   81   80 1 
   134   42   44 1 
   135   71   72 1 
   136   71   73 1 
   137   71   74 1 
   138  114  112 1 
   139  177  176 1 
   140  223  221 1 
   141   77   80 1 
   142   77   74 1 
   143   77   79 1 
   144   75   74 1 
   145  113  112 1 
   146  174  176 1 
   147  174  175 1 
   148  112  115 1 
   149   80   82 2 
   150   74   76 1 
   151  176  179 1 
   152  176  178 1 
   153  179  180 1 
   154  217  218 1 
   155  217  219 2 
   156  221  222 1 
   157  221  219 1 
   158  221  224 1 
   159  232  231 1 
   160   82   83 1 
   161   82   84 1 
   162  225  224 1 
   163  122  121 1 
   164  219  220 1 
   165  224  226 2 
   166  115  117 1 
   167  115  116 1 
   168  115  118 1 
   169  128  127 1 
   170  236  234 1 
   171   86   84 1 
   172  120  118 1 
   173  106  105 1 
   174  231  233 1 
   175  231  234 1 
   176  231  228 1 
   177  235  234 1 
   178   84   85 1 
   179   84   87 1 
   180  121  118 1 
   181  121  123 1 
   182  121  124 1 
   183  226  227 1 
   184  226  228 1 
   185  118  119 1 
   186  234  237 1 
   187  108  105 1 
   188  127  124 1 
   189  127  129 2 
   190  230  228 1 
   191  107  105 1 
   192  105  102 1 
   193  228  229 1 
   194   98   96 1 
   195  130  129 1 
   196  125  124 1 
   197  124  126 1 
   198   88   87 1 
   199  129  131 1 
   200   97   96 1 
   201   87   89 1 
   202   87   90 1 
   203  242  240 1 
   204   95   93 1 
   205   96   93 1 
   206   96   99 1 
   207  237  238 1 
   208  237  240 1 
   209  237  239 1 
   210  241  240 1 
   211  104  102 1 
   212  102   99 1 
   213  102  103 1 
   214  240  243 1 
   215   93   90 1 
   216   93   94 1 
   217   90   92 1 
   218   90   91 1 
   219   99  100 1 
   220   99  101 1 
   221  131  132 1 
   222  131  133 1 
   223  131  134 1 
   224  140  138 1 
   225  134  135 1 
   226  134  136 2 
   227  136  138 1 
   228  136  137 1 
   229  138  139 1 
   230  138  141 1 
   231  142  141 1 
   232  143  141 1 
   233  141  144 1 
   234  144  146 1 
   235  144  145 1 
   236  144  147 1 
   237  148  147 1 
   238  149  147 1 
   239  147  150 1 
   240  150  152 1 
   241  150  151 1 
   242  150  153 1 
