@<TRIPOS>MOLECULE
C:\Users\Praveer\PycharmProjects\pdb_to_mol2_converter\data\pdb\loacl2.pdb
  242   241     0     0     0
SMALL
GASTEIGER

@<TRIPOS>ATOM
      1 C3          1.5480   -0.0140   -0.0040 C.3       1 LOA1        0.0000
      2 HG31        1.8940   -0.5520    0.9080 H         1 LOA1        0.0000
      3 HG32        1.8880   -0.5880   -0.9000 H         1 LOA1        0.0000
      4 P3          3.6130    1.5360   -0.3020 P.3       1 LOA1        0.0000
      5 OP33        4.3860    0.4180    0.2780 O.3       1 LOA1        0.0000
      6 OP34        3.9950    2.9160    0.0730 O.2       1 LOA1        0.0000
      7 OP31        2.0620    1.3280   -0.0140 O.3       1 LOA1        0.0000
      8 OP32        3.6510    1.4240   -1.8860 O.3       1 LOA1        0.0000
      9 C31         3.0490    2.4790   -2.6440 C.3       1 LOA1        0.0000
     10 H31J        3.6630    3.4050   -2.5580 H         1 LOA1        0.0000
     11 H31K        2.0230    2.7160   -2.2740 H         1 LOA1        0.0000
     12 C2         -0.0030   -0.0240   -0.0100 C.3       1 LOA1        0.0000
     13 HG22       -0.3680    0.4840    0.9120 H         1 LOA1        0.0000
     14 OG12       -0.4080    0.7280   -1.1470 O.3       1 LOA1        0.0000
     15 HO12        0.2330    1.4490   -1.1250 H         1 LOA1        0.0000
     16 C1         -0.5850   -1.4660   -0.0460 C.3       1 LOA1        0.0000
     17 HG11       -0.0480   -2.0730    0.7200 H         1 LOA1        0.0000
     18 HG12       -0.3300   -1.9010   -1.0380 H         1 LOA1        0.0000
     19 P1         -2.6610   -1.7770    1.5550 P.3       1 LOA1        0.0000
     20 OP13       -2.2300   -0.7250    2.5000 O.3       1 LOA1        0.0000
     21 OP14       -4.1170   -1.9940    1.3920 O.2       1 LOA1        0.0000
     22 OP11       -2.0080   -1.5130    0.1330 O.3       1 LOA1        0.0000
     23 OP12       -1.9780   -3.1450    1.9930 O.3       1 LOA1        0.0000
     24 C11        -2.5490   -4.4210    1.6970 C.3       1 LOA1        0.0000
     25 H11J       -3.6600   -4.4190    1.7870 H         1 LOA1        0.0000
     26 H11K       -2.1600   -5.1420    2.4480 H         1 LOA1        0.0000
     27 C12        -2.1350   -4.9220    0.2900 C.3       1 LOA1        0.0000
     28 H12J       -1.0500   -4.6780    0.1860 H         1 LOA1        0.0000
     29 O12        -2.9530   -4.2420   -0.6720 O.3       1 LOA1        0.0000
     30 CA1        -2.3420   -3.8600   -1.7750 C.2       1 LOA1        0.0000
     31 OA1        -1.2240   -4.1930   -2.1290 O.2       1 LOA1        0.0000
     32 CA2        -3.2690   -2.9310   -2.5640 C.3       1 LOA1        0.0000
     33 H2A        -2.8110   -1.9200   -2.5410 H         1 LOA1        0.0000
     34 H2B        -4.2470   -2.8740   -2.0430 H         1 LOA1        0.0000
     35 C13        -2.3210   -6.4570    0.1230 C.3       1 LOA1        0.0000
     36 H13J       -3.4090   -6.6500   -0.0060 H         1 LOA1        0.0000
     37 H13K       -2.0150   -6.9740    1.0620 H         1 LOA1        0.0000
     38 O13        -1.6080   -6.9440   -1.0380 O.3       1 LOA1        0.0000
     39 CB1        -0.3170   -7.1890   -0.8080 C.2       1 LOA1        0.0000
     40 OB1         0.1850   -7.3260    0.2910 O.2       1 LOA1        0.0000
     41 CB2         0.4490   -7.2210   -2.1310 C.3       1 LOA1        0.0000
     42 H2D         0.2210   -6.2660   -2.6520 H         1 LOA1        0.0000
     43 H2E         0.0770   -8.0590   -2.7510 H         1 LOA1        0.0000
     44 C32         2.9620    2.0940   -4.1460 C.3       1 LOA1        0.0000
     45 H32J        2.5860    2.9750   -4.7180 H         1 LOA1        0.0000
     46 O32         2.0960    0.9590   -4.3320 O.3       1 LOA1        0.0000
     47 CC1         0.8060    1.2460   -4.2330 C.2       1 LOA1        0.0000
     48 OC1         0.3370    2.3640   -4.1150 O.2       1 LOA1        0.0000
     49 CC2         0.0210   -0.0590   -4.3790 C.3       1 LOA1        0.0000
     50 H2R         0.2270   -0.6620   -3.4680 H         1 LOA1        0.0000
     51 H2S         0.4200   -0.6090   -5.2520 H         1 LOA1        0.0000
     52 C33         4.3620    1.7600   -4.7240 C.3       1 LOA1        0.0000
     53 H33J        4.7890    0.9340   -4.1090 H         1 LOA1        0.0000
     54 H33K        5.0120    2.6580   -4.6060 H         1 LOA1        0.0000
     55 O33         4.2530    1.3650   -6.1100 O.3       1 LOA1        0.0000
     56 CD1         5.4140    1.0840   -6.6820 C.2       1 LOA1        0.0000
     57 OD1         6.5130    1.2740   -6.1950 O.2       1 LOA1        0.0000
     58 CD2         5.1430    0.4620   -8.0530 C.3       1 LOA1        0.0000
     59 H2X         4.3260    1.0330   -8.5380 H         1 LOA1        0.0000
     60 H2Y         4.7890   -0.5750   -7.8730 H         1 LOA1        0.0000
     61 CA3        -3.4580   -3.4150   -4.0160 C.3       1 LOA1        0.0000
     62 H3A        -3.7810   -4.4810   -4.0100 H         1 LOA1        0.0000
     63 H3B        -2.4840   -3.3560   -4.5500 H         1 LOA1        0.0000
     64 CA4        -4.4950   -2.5880   -4.7860 C.3       1 LOA1        0.0000
     65 H4A        -4.1870   -1.5170   -4.7540 H         1 LOA1        0.0000
     66 H4B        -5.4830   -2.6660   -4.2820 H         1 LOA1        0.0000
     67 CA5        -4.6300   -3.0230   -6.2530 C.3       1 LOA1        0.0000
     68 H5A        -3.6210   -3.0250   -6.7180 H         1 LOA1        0.0000
     69 H5B        -5.2510   -2.2720   -6.7900 H         1 LOA1        0.0000
     70 CA6        -5.2760   -4.4060   -6.4310 C.3       1 LOA1        0.0000
     71 H6A        -6.2480   -4.4030   -5.8870 H         1 LOA1        0.0000
     72 H6B        -4.6330   -5.1880   -5.9730 H         1 LOA1        0.0000
     73 CA7        -5.5410   -4.7640   -7.9030 C.3       1 LOA1        0.0000
     74 H7A        -6.0910   -3.9190   -8.3740 H         1 LOA1        0.0000
     75 H7B        -6.2050   -5.6580   -7.9340 H         1 LOA1        0.0000
     76 CA8        -4.2580   -5.0680   -8.7000 C.3       1 LOA1        0.0000
     77 H8A        -3.7780   -5.9750   -8.2710 H         1 LOA1        0.0000
     78 H8B        -3.5450   -4.2330   -8.5390 H         1 LOA1        0.0000
     79 CA9        -4.5580   -5.2820  -10.1650 C.2       1 LOA1        0.0000
     80 H9A        -5.2130   -6.1420  -10.3750 H         1 LOA1        0.0000
     81 CA10       -4.1270   -4.5340  -11.2010 C.2       1 LOA1        0.0000
     82 H10A       -4.4450   -4.8140  -12.2170 H         1 LOA1        0.0000
     83 CA11       -3.2440   -3.3120  -11.1380 C.3       1 LOA1        0.0000
     84 H11A       -2.2570   -3.5520  -11.5890 H         1 LOA1        0.0000
     85 H11B       -3.0340   -3.0150  -10.0930 H         1 LOA1        0.0000
     86 CA12       -3.8170   -2.0730  -11.8590 C.3       1 LOA1        0.0000
     87 H12A       -3.8930   -2.3030  -12.9470 H         1 LOA1        0.0000
     88 H12B       -3.0970   -1.2310  -11.7440 H         1 LOA1        0.0000
     89 CA13       -5.1960   -1.6110  -11.3510 C.3       1 LOA1        0.0000
     90 H13A       -5.9130   -2.4510  -11.4990 H         1 LOA1        0.0000
     91 H13B       -5.5610   -0.7640  -11.9720 H         1 LOA1        0.0000
     92 CA14       -5.2620   -1.2070   -9.8660 C.3       1 LOA1        0.0000
     93 H14A       -4.6700   -1.9010   -9.2350 H         1 LOA1        0.0000
     94 H14B       -6.3260   -1.3160   -9.5500 H         1 LOA1        0.0000
     95 CA15       -4.8630    0.2440   -9.5520 C.3       1 LOA1        0.0000
     96 H15A       -5.3640    0.9260  -10.2730 H         1 LOA1        0.0000
     97 H15B       -3.7660    0.3740   -9.6660 H         1 LOA1        0.0000
     98 CA16       -5.2990    0.6240   -8.1270 C.3       1 LOA1        0.0000
     99 H16A       -4.7790   -0.0350   -7.3980 H         1 LOA1        0.0000
    100 H16B       -6.3910    0.4280   -8.0340 H         1 LOA1        0.0000
    101 CA17       -5.0490    2.0850   -7.7340 C.3       1 LOA1        0.0000
    102 H17A       -5.5340    2.7550   -8.4780 H         1 LOA1        0.0000
    103 H17B       -3.9540    2.2880   -7.7590 H         1 LOA1        0.0000
    104 CA18       -5.5940    2.4090   -6.3380 C.3       1 LOA1        0.0000
    105 H18A       -5.1290    1.7490   -5.5740 H         1 LOA1        0.0000
    106 H18B       -6.6940    2.2490   -6.3040 H         1 LOA1        0.0000
    107 H18C       -5.3830    3.4640   -6.0630 H         1 LOA1        0.0000
    108 CB3         1.9770   -7.3250   -1.9080 C.3       1 LOA1        0.0000
    109 H3D         2.2750   -8.3790   -1.7240 H         1 LOA1        0.0000
    110 H3E         2.2550   -6.7380   -0.9980 H         1 LOA1        0.0000
    111 CB4         2.8000   -6.7230   -3.0550 C.3       1 LOA1        0.0000
    112 H4D         3.8490   -6.6070   -2.6990 H         1 LOA1        0.0000
    113 H4E         2.4090   -5.7050   -3.2750 H         1 LOA1        0.0000
    114 CB5         2.8070   -7.5640   -4.3400 C.3       1 LOA1        0.0000
    115 H5D         1.7580   -7.7960   -4.6310 H         1 LOA1        0.0000
    116 H5E         3.3220   -8.5280   -4.1290 H         1 LOA1        0.0000
    117 CB6         3.5000   -6.8680   -5.5270 C.3       1 LOA1        0.0000
    118 H6D         2.8800   -6.0010   -5.8440 H         1 LOA1        0.0000
    119 H6E         3.5460   -7.5760   -6.3840 H         1 LOA1        0.0000
    120 CB7         4.9180   -6.3590   -5.2170 C.3       1 LOA1        0.0000
    121 H7D         5.5450   -7.2140   -4.8830 H         1 LOA1        0.0000
    122 H7E         4.8630   -5.6240   -4.3810 H         1 LOA1        0.0000
    123 CB8         5.5730   -5.6570   -6.4200 C.3       1 LOA1        0.0000
    124 H8D         4.8860   -4.8420   -6.7440 H         1 LOA1        0.0000
    125 H8E         5.6430   -6.3760   -7.2650 H         1 LOA1        0.0000
    126 CB9         6.9430   -5.1300   -6.0660 C.2       1 LOA1        0.0000
    127 H9D         7.6880   -5.9080   -5.8400 H         1 LOA1        0.0000
    128 CB10        7.3110   -3.8360   -5.9720 C.2       1 LOA1        0.0000
    129 H10D        8.3480   -3.6040   -5.6850 H         1 LOA1        0.0000
    130 CB11        6.4440   -2.6260   -6.2270 C.3       1 LOA1        0.0000
    131 H11D        5.6830   -2.8580   -7.0010 H         1 LOA1        0.0000
    132 H11E        7.0720   -1.8270   -6.6800 H         1 LOA1        0.0000
    133 CB12        5.8130   -2.0850   -4.9620 C.2       1 LOA1        0.0000
    134 H12D        6.5310   -1.8030   -4.1750 H         1 LOA1        0.0000
    135 CB13        4.5020   -1.8850   -4.7170 C.2       1 LOA1        0.0000
    136 H13D        4.2050   -1.4610   -3.7420 H         1 LOA1        0.0000
    137 CB14        3.3470   -2.1770   -5.6420 C.3       1 LOA1        0.0000
    138 H14D        3.6850   -2.6550   -6.5850 H         1 LOA1        0.0000
    139 H14E        2.8340   -1.2290   -5.9180 H         1 LOA1        0.0000
    140 CB15        2.3200   -3.1200   -4.9920 C.3       1 LOA1        0.0000
    141 H15D        1.8460   -2.6190   -4.1170 H         1 LOA1        0.0000
    142 H15E        2.8420   -4.0290   -4.6200 H         1 LOA1        0.0000
    143 CB16        1.2310   -3.5550   -5.9820 C.3       1 LOA1        0.0000
    144 H16D        1.7130   -4.0700   -6.8410 H         1 LOA1        0.0000
    145 H16E        0.7180   -2.6520   -6.3740 H         1 LOA1        0.0000
    146 CB17        0.1900   -4.4950   -5.3660 C.3       1 LOA1        0.0000
    147 H17D       -0.2960   -3.9710   -4.5120 H         1 LOA1        0.0000
    148 H17E        0.7090   -5.3870   -4.9470 H         1 LOA1        0.0000
    149 CB18       -0.8770   -4.9540   -6.3630 C.3       1 LOA1        0.0000
    150 H18D       -0.4110   -5.5120   -7.2030 H         1 LOA1        0.0000
    151 H18E       -1.4190   -4.0790   -6.7810 H         1 LOA1        0.0000
    152 H18F       -1.6150   -5.6180   -5.8630 H         1 LOA1        0.0000
    153 CC3        -1.5060    0.1440   -4.5090 C.3       1 LOA1        0.0000
    154 H3R        -1.8890    0.6430   -3.5880 H         1 LOA1        0.0000
    155 H3S        -1.9730   -0.8660   -4.5460 H         1 LOA1        0.0000
    156 CC4        -1.9650    0.9400   -5.7460 C.3       1 LOA1        0.0000
    157 H4R        -1.7130    2.0140   -5.5920 H         1 LOA1        0.0000
    158 H4S        -3.0730    0.8690   -5.8070 H         1 LOA1        0.0000
    159 CC5        -1.3660    0.4880   -7.0880 C.3       1 LOA1        0.0000
    160 H5R        -0.2660    0.6500   -7.0630 H         1 LOA1        0.0000
    161 H5S        -1.7790    1.1330   -7.8970 H         1 LOA1        0.0000
    162 CC6        -1.6710   -0.9760   -7.4250 C.3       1 LOA1        0.0000
    163 H6R        -2.7710   -1.1260   -7.3790 H         1 LOA1        0.0000
    164 H6S        -1.2130   -1.6290   -6.6500 H         1 LOA1        0.0000
    165 CC7        -1.1750   -1.4260   -8.8090 C.3       1 LOA1        0.0000
    166 H7R        -1.8190   -0.9600   -9.5890 H         1 LOA1        0.0000
    167 H7S        -1.3100   -2.5310   -8.8650 H         1 LOA1        0.0000
    168 CC8         0.2960   -1.0770   -9.0960 C.3       1 LOA1        0.0000
    169 H8R         0.8930   -1.3810   -8.2100 H         1 LOA1        0.0000
    170 H8S         0.3930    0.0270   -9.1860 H         1 LOA1        0.0000
    171 CC9         0.7730   -1.7350  -10.3680 C.2       1 LOA1        0.0000
    172 H9R         0.1230   -1.5650  -11.2400 H         1 LOA1        0.0000
    173 CC10        1.8640   -2.5110  -10.5220 C.2       1 LOA1        0.0000
    174 H10R        2.0710   -2.9290  -11.5190 H         1 LOA1        0.0000
    175 CC11        2.8840   -2.8760   -9.4720 C.3       1 LOA1        0.0000
    176 H11R        2.6250   -2.4440   -8.4850 H         1 LOA1        0.0000
    177 H11S        3.8540   -2.4080   -9.7410 H         1 LOA1        0.0000
    178 CC12        3.0100   -4.3720   -9.3280 C.2       1 LOA1        0.0000
    179 H12R        2.1110   -4.8640   -8.9240 H         1 LOA1        0.0000
    180 CC13        4.0780   -5.1380   -9.6220 C.2       1 LOA1        0.0000
    181 H13R        4.0060   -6.2240   -9.4530 H         1 LOA1        0.0000
    182 CC14        5.3990   -4.6830  -10.1920 C.3       1 LOA1        0.0000
    183 H14R        6.1940   -4.8020   -9.4220 H         1 LOA1        0.0000
    184 H14S        5.3890   -3.6100  -10.4760 H         1 LOA1        0.0000
    185 CC15        5.8070   -5.4910  -11.4390 C.3       1 LOA1        0.0000
    186 H15R        5.8710   -6.5720  -11.1870 H         1 LOA1        0.0000
    187 H15S        6.8260   -5.1620  -11.7460 H         1 LOA1        0.0000
    188 CC16        4.8620   -5.3020  -12.6370 C.3       1 LOA1        0.0000
    189 H16R        4.7670   -4.2170  -12.8610 H         1 LOA1        0.0000
    190 H16S        3.8490   -5.6810  -12.3760 H         1 LOA1        0.0000
    191 CC17        5.3580   -6.0300  -13.8940 C.3       1 LOA1        0.0000
    192 H17R        5.4980   -7.1080  -13.6520 H         1 LOA1        0.0000
    193 H17S        6.3540   -5.6180  -14.1740 H         1 LOA1        0.0000
    194 CC18        4.4070   -5.9040  -15.0860 C.3       1 LOA1        0.0000
    195 H18R        4.2410   -4.8350  -15.3430 H         1 LOA1        0.0000
    196 H18S        3.4230   -6.3600  -14.8470 H         1 LOA1        0.0000
    197 H18T        4.8250   -6.4190  -15.9770 H         1 LOA1        0.0000
    198 CD3         6.3940    0.4290   -8.9630 C.3       1 LOA1        0.0000
    199 H3X         7.2590    0.0190   -8.3920 H         1 LOA1        0.0000
    200 H3Y         6.6570    1.4660   -9.2710 H         1 LOA1        0.0000
    201 CD4         6.2020   -0.4440  -10.2130 C.3       1 LOA1        0.0000
    202 H4X         6.0260   -1.4930   -9.8860 H         1 LOA1        0.0000
    203 H4Y         7.1400   -0.4340  -10.8120 H         1 LOA1        0.0000
    204 CD5         5.0360    0.0020  -11.1080 C.3       1 LOA1        0.0000
    205 H5X         5.2180    1.0380  -11.4700 H         1 LOA1        0.0000
    206 H5Y         4.0970    0.0100  -10.5110 H         1 LOA1        0.0000
    207 CD6         4.8180   -0.9290  -12.3090 C.3       1 LOA1        0.0000
    208 H6X         4.7020   -1.9680  -11.9270 H         1 LOA1        0.0000
    209 H6Y         5.7100   -0.9100  -12.9710 H         1 LOA1        0.0000
    210 CD7         3.5560   -0.5660  -13.1060 C.3       1 LOA1        0.0000
    211 H7X         3.7120    0.3860  -13.6590 H         1 LOA1        0.0000
    212 H7Y         2.7340   -0.3870  -12.3740 H         1 LOA1        0.0000
    213 CD8         3.0890   -1.6830  -14.0590 C.3       1 LOA1        0.0000
    214 H8X         2.0430   -1.4470  -14.3540 H         1 LOA1        0.0000
    215 H8Y         3.0500   -2.6380  -13.4920 H         1 LOA1        0.0000
    216 CD9         3.9830   -1.8430  -15.2620 C.2       1 LOA1        0.0000
    217 H9X         5.0590   -1.7420  -15.0540 H         1 LOA1        0.0000
    218 CD10        3.5870   -2.0870  -16.5270 C.2       1 LOA1        0.0000
    219 H10X        4.3590   -2.1810  -17.3080 H         1 LOA1        0.0000
    220 CD11        2.1690   -2.2690  -17.0180 C.3       1 LOA1        0.0000
    221 H11X        2.0270   -1.6750  -17.9470 H         1 LOA1        0.0000
    222 H11Y        1.4370   -1.8430  -16.3010 H         1 LOA1        0.0000
    223 CD12        1.8620   -3.7200  -17.3050 C.2       1 LOA1        0.0000
    224 H12X        2.3500   -4.1170  -18.2090 H         1 LOA1        0.0000
    225 CD13        1.0690   -4.5480  -16.5950 C.2       1 LOA1        0.0000
    226 H13X        0.9560   -5.5860  -16.9430 H         1 LOA1        0.0000
    227 CD14        0.3100   -4.2360  -15.3270 C.3       1 LOA1        0.0000
    228 H14X       -0.7730   -4.4410  -15.4800 H         1 LOA1        0.0000
    229 H14Y        0.3960   -3.1680  -15.0300 H         1 LOA1        0.0000
    230 CD15        0.8080   -5.0960  -14.1510 C.3       1 LOA1        0.0000
    231 H15X        1.8620   -4.8230  -13.9170 H         1 LOA1        0.0000
    232 H15Y        0.7910   -6.1730  -14.4340 H         1 LOA1        0.0000
    233 CD16       -0.0410   -4.9210  -12.8840 C.3       1 LOA1        0.0000
    234 H16X       -1.0970   -5.1890  -13.1110 H         1 LOA1        0.0000
    235 H16Y       -0.0220   -3.8530  -12.5750 H         1 LOA1        0.0000
    236 CD17        0.4560   -5.7930  -11.7230 C.3       1 LOA1        0.0000
    237 H17X        1.5180   -5.5320  -11.5140 H         1 LOA1        0.0000
    238 H17Y        0.4350   -6.8600  -12.0430 H         1 LOA1        0.0000
    239 CD18       -0.3660   -5.6370  -10.4410 C.3       1 LOA1        0.0000
    240 H18X       -1.4260   -5.9180  -10.6210 H         1 LOA1        0.0000
    241 H18Y       -0.3400   -4.5840  -10.0870 H         1 LOA1        0.0000
    242 H18Z        0.0380   -6.2870   -9.6360 H         1 LOA1        0.0000
@<TRIPOS>BOND
     1  224  223 1 
     2  221  220 1 
     3  219  218 1 
     4  223  220 1 
     5  223  225 2 
     6  220  218 1 
     7  220  222 1 
     8  226  225 1 
     9  225  227 1 
    10  218  216 2 
    11  197  194 1 
    12  228  227 1 
    13  195  194 1 
    14  227  229 1 
    15  227  230 1 
    16  216  217 1 
    17  216  213 1 
    18  194  196 1 
    19  194  191 1 
    20  232  230 1 
    21  214  213 1 
    22  193  191 1 
    23  230  231 1 
    24  230  233 1 
    25  213  215 1 
    26  213  210 1 
    27  191  192 1 
    28  191  188 1 
    29  211  210 1 
    30  234  233 1 
    31  210  212 1 
    32  210  207 1 
    33  209  207 1 
    34   87   86 1 
    35  233  235 1 
    36  233  236 1 
    37  189  188 1 
    38  188  190 1 
    39  188  185 1 
    40  207  208 1 
    41  207  204 1 
    42   82   81 1 
    43  238  236 1 
    44   91   89 1 
    45   86   88 1 
    46   86   89 1 
    47   86   83 1 
    48  187  185 1 
    49  236  237 1 
    50  236  239 1 
    51   84   83 1 
    52  174  173 1 
    53   90   89 1 
    54  205  204 1 
    55  185  186 1 
    56  185  182 1 
    57   89   92 1 
    58  172  171 1 
    59   81   83 1 
    60   81   79 2 
    61   83   85 1 
    62  204  206 1 
    63  204  201 1 
    64  203  201 1 
    65  240  239 1 
    66  173  171 2 
    67  173  175 1 
    68  184  182 1 
    69  239  241 1 
    70  239  242 1 
    71   80   79 1 
    72  171  168 1 
    73   96   95 1 
    74  201  202 1 
    75  201  198 1 
    76  182  180 1 
    77  182  183 1 
    78   79   76 1 
    79   92   95 1 
    80   92   94 1 
    81   92   93 1 
    82  177  175 1 
    83   97   95 1 
    84  180  181 1 
    85  180  178 2 
    86  166  165 1 
    87   95   98 1 
    88  175  178 1 
    89  175  176 1 
    90  178  179 1 
    91  200  198 1 
    92  170  168 1 
    93  168  165 1 
    94  168  169 1 
    95  198  199 1 
    96  198   58 1 
    97  167  165 1 
    98  165  162 1 
    99   76   78 1 
   100   76   77 1 
   101   76   73 1 
   102   59   58 1 
   103  102  101 1 
   104   74   73 1 
   105   98  100 1 
   106   98  101 1 
   107   98   99 1 
   108   58   60 1 
   109   58   56 1 
   110   75   73 1 
   111   73   70 1 
   112  161  159 1 
   113  103  101 1 
   114  101  104 1 
   115  162  163 1 
   116  162  159 1 
   117  162  164 1 
   118  125  123 1 
   119  150  149 1 
   120  159  160 1 
   121  159  156 1 
   122  131  130 1 
   123  144  143 1 
   124   69   67 1 
   125  151  149 1 
   126  124  123 1 
   127   68   67 1 
   128   56   57 2 
   129   56   55 1 
   130  132  130 1 
   131  138  137 1 
   132   70   67 1 
   133   70   72 1 
   134   70   71 1 
   135  123  126 1 
   136  123  120 1 
   137  119  117 1 
   138  145  143 1 
   139  149  152 1 
   140  149  146 1 
   141  104  106 1 
   142  104  107 1 
   143  104  105 1 
   144   67   64 1 
   145  130  128 1 
   146  130  133 1 
   147   55   52 1 
   148  126  128 2 
   149  126  127 1 
   150  143  146 1 
   151  143  140 1 
   152  128  129 1 
   153  139  137 1 
   154  118  117 1 
   155  158  156 1 
   156  156  157 1 
   157  156  153 1 
   158  137  140 1 
   159  137  135 1 
   160  117  120 1 
   161  117  114 1 
   162  146  148 1 
   163  146  147 1 
   164   51   49 1 
   165  120  121 1 
   166  120  122 1 
   167  140  142 1 
   168  140  141 1 
   169  133  135 2 
   170  133  134 1 
   171   64   65 1 
   172   64   66 1 
   173   64   61 1 
   174   52   54 1 
   175   52   44 1 
   176   52   53 1 
   177   45   44 1 
   178  135  136 1 
   179  115  114 1 
   180   63   61 1 
   181  155  153 1 
   182  153   49 1 
   183  153  154 1 
   184   49   47 1 
   185   49   50 1 
   186  114  116 1 
   187  114  111 1 
   188   46   47 1 
   189   46   44 1 
   190   47   48 2 
   191   44    9 1 
   192   61   62 1 
   193   61   32 1 
   194  113  111 1 
   195  111  112 1 
   196  111  108 1 
   197   43   41 1 
   198   42   41 1 
   199    9   10 1 
   200    9   11 1 
   201    9    8 1 
   202   32   33 1 
   203   32   34 1 
   204   32   30 1 
   205   41  108 1 
   206   41   39 1 
   207   31   30 2 
   208  108  109 1 
   209  108  110 1 
   210    8    4 1 
   211   30   29 1 
   212   14   15 1 
   213   14   12 1 
   214   38   39 1 
   215   38   35 1 
   216   18   16 1 
   217    3    1 1 
   218   39   40 2 
   219   29   27 1 
   220    4    7 1 
   221    4    6 2 
   222    4    5 1 
   223   16   12 1 
   224   16   22 1 
   225   16   17 1 
   226    7    1 1 
   227   12    1 1 
   228   12   13 1 
   229   36   35 1 
   230    1    2 1 
   231   35   27 1 
   232   35   37 1 
   233   22   19 1 
   234   28   27 1 
   235   27   24 1 
   236   21   19 2 
   237   19   23 1 
   238   19   20 1 
   239   24   25 1 
   240   24   23 1 
   241   24   26 1 
