@<TRIPOS>MOLECULE
C:\Users\Praveer\PycharmProjects\pdb_to_mol2_converter\data\pdb\loccl1.pdb
  243   242     0     0     0
SMALL
GASTEIGER

@<TRIPOS>ATOM
      1 C3          1.5580    0.0090    0.0170 C.3       1 LOC1        0.0000
      2 HG31        1.9110   -0.5970    0.8860 H         1 LOC1        0.0000
      3 HG32        1.9210   -0.4990   -0.9040 H         1 LOC1        0.0000
      4 P3          2.9910    1.9000    1.1760 P.3       1 LOC1        0.0000
      5 OP33        2.1340    2.2120    2.3410 O.3       1 LOC1        0.0000
      6 OP34        3.8620    2.9660    0.6430 O.2       1 LOC1        0.0000
      7 OP31        2.0670    1.3410    0.0190 O.3       1 LOC1        0.0000
      8 OP32        3.8770    0.6420    1.5430 O.3       1 LOC1        0.0000
      9 C31         4.8700    0.1880    0.6220 C.3       1 LOC1        0.0000
     10 H31J        5.5900    1.0040    0.3780 H         1 LOC1        0.0000
     11 H31K        4.4000   -0.1450   -0.3310 H         1 LOC1        0.0000
     12 C2          0.0100   -0.0120    0.0280 C.3       1 LOC1        0.0000
     13 HG22       -0.3680    0.5400   -0.8620 H         1 LOC1        0.0000
     14 OG12       -0.3990   -1.3790   -0.0690 O.3       1 LOC1        0.0000
     15 HO12        0.0500   -1.7270   -0.8450 H         1 LOC1        0.0000
     16 C1         -0.6100    0.6500    1.2940 C.3       1 LOC1        0.0000
     17 HG11        0.1320    0.4920    2.1160 H         1 LOC1        0.0000
     18 HG12       -1.5440    0.1000    1.5540 H         1 LOC1        0.0000
     19 P1         -1.1260    2.9240    2.3330 P.3       1 LOC1        0.0000
     20 OP13        0.1080    3.8700    2.5240 O.3       1 LOC1        0.0000
     21 HP13        0.9340    3.3480    2.4400 H         1 LOC1        0.0000
     22 OP14       -2.3560    3.7360    2.3200 O.2       1 LOC1        0.0000
     23 OP11       -0.9320    2.0280    1.0560 O.3       1 LOC1        0.0000
     24 OP12       -1.1350    1.9210    3.5400 O.3       1 LOC1        0.0000
     25 C11        -0.9630    2.4480    4.8560 C.3       1 LOC1        0.0000
     26 H11J       -1.6210    1.8600    5.5320 H         1 LOC1        0.0000
     27 H11K       -1.2690    3.5160    4.9680 H         1 LOC1        0.0000
     28 C12         0.5000    2.2670    5.3740 C.3       1 LOC1        0.0000
     29 H12J        1.1340    2.9910    4.8080 H         1 LOC1        0.0000
     30 O12         0.9400    0.9220    5.0890 O.3       1 LOC1        0.0000
     31 CA1         2.2640    0.7650    5.1480 C.2       1 LOC1        0.0000
     32 OA1         3.0550    1.6010    5.5470 O.2       1 LOC1        0.0000
     33 CA2         2.6220   -0.6230    4.6150 C.3       1 LOC1        0.0000
     34 H2A         2.8340   -0.5020    3.5320 H         1 LOC1        0.0000
     35 H2B         1.7480   -1.2930    4.7330 H         1 LOC1        0.0000
     36 C13         0.5970    2.6210    6.8910 C.3       1 LOC1        0.0000
     37 H13J        0.4510    3.7210    6.9720 H         1 LOC1        0.0000
     38 H13K        1.6150    2.4170    7.2930 H         1 LOC1        0.0000
     39 O13        -0.4400    1.9760    7.6580 O.3       1 LOC1        0.0000
     40 CB1        -0.1540    0.7600    8.1160 C.2       1 LOC1        0.0000
     41 OB1         0.9100    0.1860    8.0110 O.2       1 LOC1        0.0000
     42 CB2        -1.3880    0.2060    8.8260 C.3       1 LOC1        0.0000
     43 H2D        -2.2970    0.6170    8.3400 H         1 LOC1        0.0000
     44 H2E        -1.3510    0.5640    9.8750 H         1 LOC1        0.0000
     45 C32         5.6660   -0.9880    1.2490 C.3       1 LOC1        0.0000
     46 H32J        6.3570   -1.4110    0.4840 H         1 LOC1        0.0000
     47 O32         4.7830   -2.0080    1.7520 O.3       1 LOC1        0.0000
     48 CC1         4.1040   -2.6700    0.8420 C.2       1 LOC1        0.0000
     49 OC1         4.2620   -2.6200   -0.3650 O.2       1 LOC1        0.0000
     50 CC2         3.0690   -3.5500    1.5440 C.3       1 LOC1        0.0000
     51 H2R         2.5040   -4.1010    0.7670 H         1 LOC1        0.0000
     52 H2S         2.3740   -2.8660    2.0730 H         1 LOC1        0.0000
     53 C33         6.5330   -0.4800    2.4310 C.3       1 LOC1        0.0000
     54 H33J        5.8220   -0.0070    3.1530 H         1 LOC1        0.0000
     55 H33K        7.2320    0.3030    2.0650 H         1 LOC1        0.0000
     56 O33         7.2640   -1.5780    3.0210 O.3       1 LOC1        0.0000
     57 CD1         7.6020   -1.3900    4.2900 C.2       1 LOC1        0.0000
     58 OD1         7.5410   -0.3380    4.8970 O.2       1 LOC1        0.0000
     59 CD2         8.0350   -2.7210    4.9000 C.3       1 LOC1        0.0000
     60 H2X         8.1700   -2.5470    5.9880 H         1 LOC1        0.0000
     61 H2Y         9.0070   -3.0140    4.4580 H         1 LOC1        0.0000
     62 CA3         3.8600   -1.2270    5.3130 C.3       1 LOC1        0.0000
     63 H3A         4.7140   -0.5130    5.2700 H         1 LOC1        0.0000
     64 H3B         4.1600   -2.1370    4.7460 H         1 LOC1        0.0000
     65 CA4         3.5870   -1.6220    6.7710 C.3       1 LOC1        0.0000
     66 H4A         2.6590   -2.2300    6.8250 H         1 LOC1        0.0000
     67 H4B         3.4140   -0.6930    7.3620 H         1 LOC1        0.0000
     68 CA5         4.7460   -2.4060    7.4030 C.3       1 LOC1        0.0000
     69 H5A         5.6940   -1.8720    7.1640 H         1 LOC1        0.0000
     70 H5B         4.8010   -3.4190    6.9490 H         1 LOC1        0.0000
     71 CA6         4.6150   -2.5320    8.9290 C.3       1 LOC1        0.0000
     72 H6A         3.6360   -2.9970    9.1740 H         1 LOC1        0.0000
     73 H6B         4.6080   -1.5100    9.3690 H         1 LOC1        0.0000
     74 CA7         5.7290   -3.3640    9.5920 C.3       1 LOC1        0.0000
     75 H7A         5.6240   -4.4230    9.2640 H         1 LOC1        0.0000
     76 H7B         5.5790   -3.3410   10.6960 H         1 LOC1        0.0000
     77 CA8         7.1690   -2.9040    9.2780 C.3       1 LOC1        0.0000
     78 H8A         7.3670   -3.0730    8.1980 H         1 LOC1        0.0000
     79 H8B         7.8640   -3.5770    9.8270 H         1 LOC1        0.0000
     80 CA9         7.4080   -1.4510    9.6110 C.2       1 LOC1        0.0000
     81 H9A         6.9060   -0.7450    8.9290 H         1 LOC1        0.0000
     82 CA10        8.1370   -0.9470   10.6270 C.2       1 LOC1        0.0000
     83 H10A        8.2070    0.1490   10.7190 H         1 LOC1        0.0000
     84 CA11        8.8960   -1.7150   11.6830 C.3       1 LOC1        0.0000
     85 H11A        9.9520   -1.3660   11.6850 H         1 LOC1        0.0000
     86 H11B        8.9430   -2.7970   11.4370 H         1 LOC1        0.0000
     87 CA12        8.3030   -1.5010   13.0560 C.2       1 LOC1        0.0000
     88 H12A        7.9550   -0.4780   13.2670 H         1 LOC1        0.0000
     89 CA13        8.1470   -2.4390   14.0100 C.2       1 LOC1        0.0000
     90 H13A        7.6890   -2.1480   14.9670 H         1 LOC1        0.0000
     91 CA14        8.5580   -3.8870   13.9170 C.3       1 LOC1        0.0000
     92 H14A        8.8980   -4.2500   14.9110 H         1 LOC1        0.0000
     93 H14B        9.4270   -3.9990   13.2320 H         1 LOC1        0.0000
     94 CA15        7.4350   -4.8140   13.4060 C.3       1 LOC1        0.0000
     95 H15A        7.8480   -5.8450   13.3140 H         1 LOC1        0.0000
     96 H15B        7.1270   -4.4860   12.3880 H         1 LOC1        0.0000
     97 CA16        6.2060   -4.8690   14.3280 C.3       1 LOC1        0.0000
     98 H16A        5.7470   -3.8570   14.3790 H         1 LOC1        0.0000
     99 H16B        6.5390   -5.1400   15.3550 H         1 LOC1        0.0000
    100 CA17        5.1270   -5.8700   13.8780 C.3       1 LOC1        0.0000
    101 H17A        4.3000   -5.8420   14.6250 H         1 LOC1        0.0000
    102 H17B        5.5580   -6.8960   13.8970 H         1 LOC1        0.0000
    103 CA18        4.5410   -5.5960   12.4880 C.3       1 LOC1        0.0000
    104 H18A        5.3100   -5.7370   11.6990 H         1 LOC1        0.0000
    105 H18B        4.1700   -4.5510   12.4270 H         1 LOC1        0.0000
    106 H18C        3.6920   -6.2800   12.2760 H         1 LOC1        0.0000
    107 CB3        -1.4270   -1.3360    8.7850 C.3       1 LOC1        0.0000
    108 H3D        -0.5010   -1.7480    9.2480 H         1 LOC1        0.0000
    109 H3E        -1.4390   -1.6770    7.7230 H         1 LOC1        0.0000
    110 CB4        -2.6540   -1.9310    9.4980 C.3       1 LOC1        0.0000
    111 H4D        -2.6190   -3.0390    9.3930 H         1 LOC1        0.0000
    112 H4E        -3.5770   -1.5820    8.9820 H         1 LOC1        0.0000
    113 CB5        -2.7650   -1.5820   10.9940 C.3       1 LOC1        0.0000
    114 H5D        -3.6180   -2.1520   11.4270 H         1 LOC1        0.0000
    115 H5E        -3.0070   -0.5010   11.0960 H         1 LOC1        0.0000
    116 CB6        -1.5020   -1.8780   11.8220 C.3       1 LOC1        0.0000
    117 H6D        -1.7060   -1.6290   12.8880 H         1 LOC1        0.0000
    118 H6E        -0.6840   -1.2070   11.4810 H         1 LOC1        0.0000
    119 CB7        -1.0300   -3.3400   11.7430 C.3       1 LOC1        0.0000
    120 H7D        -0.8210   -3.6160   10.6860 H         1 LOC1        0.0000
    121 H7E        -1.8570   -3.9960   12.0970 H         1 LOC1        0.0000
    122 CB8         0.2260   -3.6250   12.5920 C.3       1 LOC1        0.0000
    123 H8D         0.4400   -4.7160   12.5360 H         1 LOC1        0.0000
    124 H8E        -0.0180   -3.3910   13.6520 H         1 LOC1        0.0000
    125 CB9         1.4250   -2.8480   12.1070 C.2       1 LOC1        0.0000
    126 H9D         1.4360   -2.6490   11.0230 H         1 LOC1        0.0000
    127 CB10        2.4200   -2.3490   12.8670 C.2       1 LOC1        0.0000
    128 H10D        3.2340   -1.7950   12.3720 H         1 LOC1        0.0000
    129 CB11        2.5860   -2.5210   14.3580 C.3       1 LOC1        0.0000
    130 H11D        3.5420   -3.0570   14.5440 H         1 LOC1        0.0000
    131 H11E        1.8040   -3.1860   14.7830 H         1 LOC1        0.0000
    132 CB12        2.5540   -1.2020   15.0940 C.2       1 LOC1        0.0000
    133 H12D        1.5620   -0.7280   15.1470 H         1 LOC1        0.0000
    134 CB13        3.5960   -0.5960   15.6950 C.2       1 LOC1        0.0000
    135 H13D        3.4280    0.3590   16.2190 H         1 LOC1        0.0000
    136 CB14        5.0200   -1.0950   15.7230 C.3       1 LOC1        0.0000
    137 H14D        5.7250   -0.2360   15.7600 H         1 LOC1        0.0000
    138 H14E        5.2550   -1.6490   14.7850 H         1 LOC1        0.0000
    139 CB15        5.3120   -2.0280   16.9150 C.3       1 LOC1        0.0000
    140 H15D        6.3420   -2.4340   16.8030 H         1 LOC1        0.0000
    141 H15E        4.6130   -2.8940   16.8930 H         1 LOC1        0.0000
    142 CB16        5.2170   -1.3340   18.2830 C.3       1 LOC1        0.0000
    143 H16D        4.1810   -0.9580   18.4380 H         1 LOC1        0.0000
    144 H16E        5.9020   -0.4560   18.2940 H         1 LOC1        0.0000
    145 CB17        5.5830   -2.2660   19.4460 C.3       1 LOC1        0.0000
    146 H17D        6.6170   -2.6500   19.2880 H         1 LOC1        0.0000
    147 H17E        4.8960   -3.1430   19.4300 H         1 LOC1        0.0000
    148 CB18        5.5010   -1.5880   20.8160 C.3       1 LOC1        0.0000
    149 H18D        4.4710   -1.2180   21.0050 H         1 LOC1        0.0000
    150 H18E        6.1990   -0.7240   20.8640 H         1 LOC1        0.0000
    151 H18F        5.7720   -2.3030   21.6220 H         1 LOC1        0.0000
    152 CC3         3.7240   -4.5360    2.5400 C.3       1 LOC1        0.0000
    153 H3R         4.3560   -3.9630    3.2570 H         1 LOC1        0.0000
    154 H3S         4.3920   -5.2380    1.9930 H         1 LOC1        0.0000
    155 CC4         2.7140   -5.3470    3.3670 C.3       1 LOC1        0.0000
    156 H4R         3.2880   -5.9650    4.0950 H         1 LOC1        0.0000
    157 H4S         2.1460   -6.0430    2.7110 H         1 LOC1        0.0000
    158 CC5         1.7300   -4.4630    4.1460 C.3       1 LOC1        0.0000
    159 H5R         0.9080   -4.1250    3.4770 H         1 LOC1        0.0000
    160 H5S         2.2750   -3.5570    4.4980 H         1 LOC1        0.0000
    161 CC6         1.1540   -5.1580    5.3830 C.3       1 LOC1        0.0000
    162 H6R         2.0120   -5.4170    6.0430 H         1 LOC1        0.0000
    163 H6S         0.6500   -6.1080    5.0980 H         1 LOC1        0.0000
    164 CC7         0.1710   -4.2640    6.1560 C.3       1 LOC1        0.0000
    165 H7R        -0.8020   -4.2620    5.6130 H         1 LOC1        0.0000
    166 H7S         0.5470   -3.2150    6.1570 H         1 LOC1        0.0000
    167 CC8        -0.0630   -4.7190    7.6110 C.3       1 LOC1        0.0000
    168 H8R        -0.4600   -5.7570    7.5760 H         1 LOC1        0.0000
    169 H8S        -0.8600   -4.0790    8.0490 H         1 LOC1        0.0000
    170 CC9         1.1890   -4.6080    8.4520 C.2       1 LOC1        0.0000
    171 H9R         1.8170   -3.7370    8.2100 H         1 LOC1        0.0000
    172 CC10        1.6070   -5.4630    9.4060 C.2       1 LOC1        0.0000
    173 H10R        2.5570   -5.2560    9.9270 H         1 LOC1        0.0000
    174 CC11        0.8670   -6.6930    9.8740 C.3       1 LOC1        0.0000
    175 H11R       -0.0020   -6.9280    9.2240 H         1 LOC1        0.0000
    176 H11S        0.4290   -6.4820   10.8760 H         1 LOC1        0.0000
    177 CC12        1.6920   -7.9920   10.0170 C.3       1 LOC1        0.0000
    178 H12R        0.9760   -8.7800   10.3490 H         1 LOC1        0.0000
    179 H12S        2.4390   -7.8730   10.8330 H         1 LOC1        0.0000
    180 CC13        2.4170   -8.5490    8.7710 C.3       1 LOC1        0.0000
    181 H13R        2.3930   -9.6590    8.8650 H         1 LOC1        0.0000
    182 H13S        3.4850   -8.2410    8.8180 H         1 LOC1        0.0000
    183 CC14        1.8710   -8.1630    7.3830 C.3       1 LOC1        0.0000
    184 H14R        2.5450   -7.3880    6.9550 H         1 LOC1        0.0000
    185 H14S        0.8590   -7.7160    7.4590 H         1 LOC1        0.0000
    186 CC15        1.7320   -9.3380    6.3990 C.3       1 LOC1        0.0000
    187 H15R        1.3310   -8.9390    5.4400 H         1 LOC1        0.0000
    188 H15S        0.9730  -10.0410    6.8110 H         1 LOC1        0.0000
    189 CC16        3.0310  -10.1100    6.1240 C.3       1 LOC1        0.0000
    190 H16R        3.5510  -10.3120    7.0860 H         1 LOC1        0.0000
    191 H16S        3.7030   -9.4780    5.5030 H         1 LOC1        0.0000
    192 CC17        2.7940  -11.4600    5.4250 C.3       1 LOC1        0.0000
    193 H17R        2.1380  -12.0820    6.0770 H         1 LOC1        0.0000
    194 H17S        3.7710  -11.9880    5.3400 H         1 LOC1        0.0000
    195 CC18        2.1610  -11.3600    4.0330 C.3       1 LOC1        0.0000
    196 H18R        2.8260  -10.7980    3.3420 H         1 LOC1        0.0000
    197 H18S        1.1800  -10.8410    4.0810 H         1 LOC1        0.0000
    198 H18T        1.9950  -12.3760    3.6120 H         1 LOC1        0.0000
    199 CD3         6.9730   -3.8210    4.6730 C.3       1 LOC1        0.0000
    200 H3X         6.9390   -4.0980    3.5940 H         1 LOC1        0.0000
    201 H3Y         5.9700   -3.4220    4.9440 H         1 LOC1        0.0000
    202 CD4         7.2130   -5.0760    5.5190 C.3       1 LOC1        0.0000
    203 H4X         7.2880   -4.7760    6.5880 H         1 LOC1        0.0000
    204 H4Y         8.1800   -5.5430    5.2280 H         1 LOC1        0.0000
    205 CD5         6.0790   -6.1000    5.3600 C.3       1 LOC1        0.0000
    206 H5X         5.9890   -6.3610    4.2810 H         1 LOC1        0.0000
    207 H5Y         5.1170   -5.6340    5.6740 H         1 LOC1        0.0000
    208 CD6         6.2950   -7.3920    6.1630 C.3       1 LOC1        0.0000
    209 H6X         7.2830   -7.8280    5.8940 H         1 LOC1        0.0000
    210 H6Y         5.5120   -8.1280    5.8720 H         1 LOC1        0.0000
    211 CD7         6.2260   -7.1830    7.6840 C.3       1 LOC1        0.0000
    212 H7X         5.2280   -6.7630    7.9410 H         1 LOC1        0.0000
    213 H7Y         6.9930   -6.4350    7.9830 H         1 LOC1        0.0000
    214 CD8         6.4650   -8.4840    8.4730 C.3       1 LOC1        0.0000
    215 H8X         7.4540   -8.9000    8.1710 H         1 LOC1        0.0000
    216 H8Y         5.7010   -9.2340    8.1670 H         1 LOC1        0.0000
    217 CD9         6.4050   -8.2590    9.9640 C.2       1 LOC1        0.0000
    218 H9X         5.4300   -8.4770   10.4280 H         1 LOC1        0.0000
    219 CD10        7.4150   -7.8290   10.7480 C.2       1 LOC1        0.0000
    220 H10X        7.2260   -7.7030   11.8260 H         1 LOC1        0.0000
    221 CD11        8.8110   -7.4590   10.3040 C.3       1 LOC1        0.0000
    222 H11X        8.9780   -6.3800   10.5170 H         1 LOC1        0.0000
    223 H11Y        8.9240   -7.5530    9.2020 H         1 LOC1        0.0000
    224 CD12        9.8600   -8.3190   10.9730 C.2       1 LOC1        0.0000
    225 H12X        9.8380   -9.3790   10.6720 H         1 LOC1        0.0000
    226 CD13       10.8030   -7.9190   11.8500 C.2       1 LOC1        0.0000
    227 H13X       11.5110   -8.6660   12.2420 H         1 LOC1        0.0000
    228 CD14       10.9980   -6.5210   12.3850 C.3       1 LOC1        0.0000
    229 H14X       11.2470   -6.5640   13.4680 H         1 LOC1        0.0000
    230 H14Y       10.0620   -5.9290   12.3020 H         1 LOC1        0.0000
    231 CD15       12.1120   -5.7530   11.6460 C.3       1 LOC1        0.0000
    232 H15X       11.9380   -5.8300   10.5480 H         1 LOC1        0.0000
    233 H15Y       13.0980   -6.2180   11.8660 H         1 LOC1        0.0000
    234 CD16       12.1670   -4.2550   12.0020 C.3       1 LOC1        0.0000
    235 H16X       11.1970   -3.7840   11.7240 H         1 LOC1        0.0000
    236 H16Y       12.9590   -3.7720   11.3860 H         1 LOC1        0.0000
    237 CD17       12.4550   -3.9660   13.4820 C.3       1 LOC1        0.0000
    238 H17X       13.4260   -4.4370   13.7570 H         1 LOC1        0.0000
    239 H17Y       11.6650   -4.4360   14.1100 H         1 LOC1        0.0000
    240 CD18       12.5090   -2.4700   13.8030 C.3       1 LOC1        0.0000
    241 H18X       11.5350   -1.9880   13.5680 H         1 LOC1        0.0000
    242 H18Y       13.3010   -1.9710   13.2040 H         1 LOC1        0.0000
    243 H18Z       12.7280   -2.3100   14.8800 H         1 LOC1        0.0000
@<TRIPOS>BOND
     1    3    1 1 
     2   13   12 1 
     3   15   14 1 
     4   49   48 2 
     5   11    9 1 
     6   14   12 1 
     7    1    7 1 
     8    1   12 1 
     9    1    2 1 
    10    7    4 1 
    11   12   16 1 
    12   10    9 1 
    13   46   45 1 
    14    9   45 1 
    15    9    8 1 
    16    6    4 2 
    17   51   50 1 
    18   48   50 1 
    19   48   47 1 
    20   23   16 1 
    21   23   19 1 
    22    4    8 1 
    23    4    5 1 
    24   45   47 1 
    25   45   53 1 
    26   16   18 1 
    27   16   17 1 
    28   50   52 1 
    29   50  152 1 
    30  154  152 1 
    31   55   53 1 
    32   22   19 2 
    33   19   20 1 
    34   19   24 1 
    35   53   56 1 
    36   53   54 1 
    37   21   20 1 
    38  152  153 1 
    39  152  155 1 
    40  157  155 1 
    41   56   57 1 
    42  196  195 1 
    43  155  156 1 
    44  155  158 1 
    45  159  158 1 
    46   34   33 1 
    47   24   25 1 
    48  200  199 1 
    49  198  195 1 
    50  195  197 1 
    51  195  192 1 
    52  158  160 1 
    53  158  161 1 
    54  206  205 1 
    55   57   58 2 
    56   57   59 1 
    57   61   59 1 
    58   33   35 1 
    59   33   31 1 
    60   33   62 1 
    61  199   59 1 
    62  199  201 1 
    63  199  202 1 
    64   64   62 1 
    65   29   28 1 
    66   25   27 1 
    67   25   28 1 
    68   25   26 1 
    69   59   60 1 
    70   30   31 1 
    71   30   28 1 
    72  163  161 1 
    73   31   32 2 
    74  204  202 1 
    75   63   62 1 
    76   62   65 1 
    77  194  192 1 
    78  205  202 1 
    79  205  207 1 
    80  205  208 1 
    81   28   36 1 
    82  161  162 1 
    83  161  164 1 
    84  192  193 1 
    85  192  189 1 
    86  187  186 1 
    87  191  189 1 
    88  202  203 1 
    89  165  164 1 
    90  210  208 1 
    91  209  208 1 
    92  189  186 1 
    93  189  190 1 
    94  164  166 1 
    95  164  167 1 
    96  208  211 1 
    97  186  188 1 
    98  186  183 1 
    99   65   66 1 
   100   65   67 1 
   101   65   68 1 
   102   36   37 1 
   103   36   38 1 
   104   36   39 1 
   105   70   68 1 
   106  184  183 1 
   107   69   68 1 
   108  183  185 1 
   109  183  180 1 
   110   68   71 1 
   111  168  167 1 
   112  167  169 1 
   113  167  170 1 
   114   39   40 1 
   115  211  212 1 
   116  211  213 1 
   117  211  214 1 
   118  109  107 1 
   119   41   40 2 
   120   40   42 1 
   121  216  214 1 
   122  215  214 1 
   123   78   77 1 
   124  171  170 1 
   125   43   42 1 
   126  170  172 2 
   127  214  217 1 
   128  180  182 1 
   129  180  181 1 
   130  180  177 1 
   131  107   42 1 
   132  107  108 1 
   133  107  110 1 
   134   42   44 1 
   135   71   72 1 
   136   71   73 1 
   137   71   74 1 
   138   81   80 1 
   139  112  110 1 
   140  223  221 1 
   141  175  174 1 
   142   75   74 1 
   143   77   74 1 
   144   77   80 1 
   145   77   79 1 
   146  111  110 1 
   147  172  174 1 
   148  172  173 1 
   149  110  113 1 
   150   74   76 1 
   151   80   82 2 
   152  174  177 1 
   153  174  176 1 
   154  217  218 1 
   155  217  219 2 
   156  177  178 1 
   157  177  179 1 
   158  221  222 1 
   159  221  219 1 
   160  221  224 1 
   161  232  231 1 
   162   82   83 1 
   163   82   84 1 
   164  225  224 1 
   165  120  119 1 
   166  219  220 1 
   167  224  226 2 
   168  113  115 1 
   169  113  114 1 
   170  113  116 1 
   171  126  125 1 
   172  236  234 1 
   173   86   84 1 
   174  118  116 1 
   175  231  233 1 
   176  231  234 1 
   177  231  228 1 
   178   84   85 1 
   179   84   87 1 
   180  104  103 1 
   181  235  234 1 
   182  119  116 1 
   183  119  121 1 
   184  119  122 1 
   185  116  117 1 
   186  226  227 1 
   187  226  228 1 
   188  234  237 1 
   189  125  122 1 
   190  125  127 2 
   191  106  103 1 
   192  230  228 1 
   193  128  127 1 
   194  228  229 1 
   195   96   94 1 
   196  105  103 1 
   197  103  100 1 
   198  123  122 1 
   199  122  124 1 
   200  127  129 1 
   201   87   88 1 
   202   87   89 2 
   203  242  240 1 
   204   93   91 1 
   205   95   94 1 
   206   94   91 1 
   207   94   97 1 
   208  237  238 1 
   209  237  240 1 
   210  237  239 1 
   211  241  240 1 
   212  240  243 1 
   213  100  102 1 
   214  100   97 1 
   215  100  101 1 
   216   91   89 1 
   217   91   92 1 
   218   89   90 1 
   219   97   98 1 
   220   97   99 1 
   221  129  130 1 
   222  129  131 1 
   223  129  132 1 
   224  138  136 1 
   225  132  133 1 
   226  132  134 2 
   227  134  136 1 
   228  134  135 1 
   229  136  137 1 
   230  136  139 1 
   231  140  139 1 
   232  141  139 1 
   233  139  142 1 
   234  142  144 1 
   235  142  143 1 
   236  142  145 1 
   237  146  145 1 
   238  147  145 1 
   239  145  148 1 
   240  148  150 1 
   241  148  149 1 
   242  148  151 1 
