@<TRIPOS>MOLECULE
C:\Users\Praveer\PycharmProjects\pdb_to_mol2_converter\data\pdb\loccl2.pdb
  242   241     0     0     0
SMALL
GASTEIGER

@<TRIPOS>ATOM
      1 C3          1.5390   -0.0160   -0.0030 C.3       1 LOC1        0.0000
      2 HG31        1.8890   -0.5500    0.9100 H         1 LOC1        0.0000
      3 HG32        1.8770   -0.5930   -0.8980 H         1 LOC1        0.0000
      4 P3          3.6020    1.5300   -0.3110 P.3       1 LOC1        0.0000
      5 OP33        4.3710    0.4030    0.2600 O.3       1 LOC1        0.0000
      6 OP34        3.9940    2.9040    0.0720 O.2       1 LOC1        0.0000
      7 OP31        2.0510    1.3260   -0.0210 O.3       1 LOC1        0.0000
      8 OP32        3.6360    1.4250   -1.8950 O.3       1 LOC1        0.0000
      9 C31         3.0490    2.4910   -2.6500 C.3       1 LOC1        0.0000
     10 H31J        3.6790    3.4060   -2.5660 H         1 LOC1        0.0000
     11 H31K        2.0290    2.7460   -2.2780 H         1 LOC1        0.0000
     12 C2         -0.0100   -0.0310   -0.0070 C.3       1 LOC1        0.0000
     13 HG22       -0.3770    0.4710    0.9170 H         1 LOC1        0.0000
     14 OG12       -0.4170    0.7230   -1.1410 O.3       1 LOC1        0.0000
     15 HO12        0.2370    1.4340   -1.1280 H         1 LOC1        0.0000
     16 C1         -0.5840   -1.4760   -0.0510 C.3       1 LOC1        0.0000
     17 HG11       -0.0450   -2.0850    0.7110 H         1 LOC1        0.0000
     18 HG12       -0.3250   -1.9030   -1.0450 H         1 LOC1        0.0000
     19 P1         -2.6560   -1.7720    1.5550 P.3       1 LOC1        0.0000
     20 OP13       -2.2100   -0.7140    2.4850 O.3       1 LOC1        0.0000
     21 OP14       -4.1150   -1.9750    1.4000 O.2       1 LOC1        0.0000
     22 OP11       -2.0060   -1.5300    0.1260 O.3       1 LOC1        0.0000
     23 OP12       -1.9850   -3.1420    2.0040 O.3       1 LOC1        0.0000
     24 C11        -2.5610   -4.4150    1.7070 C.3       1 LOC1        0.0000
     25 H11J       -3.6720   -4.4080    1.8000 H         1 LOC1        0.0000
     26 H11K       -2.1720   -5.1390    2.4550 H         1 LOC1        0.0000
     27 C12        -2.1540   -4.9170    0.2970 C.3       1 LOC1        0.0000
     28 H12J       -1.0680   -4.6750    0.1920 H         1 LOC1        0.0000
     29 O12        -2.9770   -4.2360   -0.6610 O.3       1 LOC1        0.0000
     30 CA1        -2.3660   -3.8490   -1.7630 C.2       1 LOC1        0.0000
     31 OA1        -1.2410   -4.1710   -2.1100 O.2       1 LOC1        0.0000
     32 CA2        -3.3020   -2.9370   -2.5590 C.3       1 LOC1        0.0000
     33 H2A        -2.8620   -1.9180   -2.5340 H         1 LOC1        0.0000
     34 H2B        -4.2850   -2.8960   -2.0460 H         1 LOC1        0.0000
     35 C13        -2.3440   -6.4500    0.1270 C.3       1 LOC1        0.0000
     36 H13J       -3.4320   -6.6390   -0.0110 H         1 LOC1        0.0000
     37 H13K       -2.0470   -6.9720    1.0650 H         1 LOC1        0.0000
     38 O13        -1.6250   -6.9370   -1.0320 O.3       1 LOC1        0.0000
     39 CB1        -0.3350   -7.1770   -0.7960 C.2       1 LOC1        0.0000
     40 OB1         0.1640   -7.3070    0.3080 O.2       1 LOC1        0.0000
     41 CB2         0.4370   -7.2160   -2.1160 C.3       1 LOC1        0.0000
     42 H2D         0.2180   -6.2580   -2.6360 H         1 LOC1        0.0000
     43 H2E         0.0610   -8.0500   -2.7380 H         1 LOC1        0.0000
     44 C32         2.9540    2.1050   -4.1510 C.3       1 LOC1        0.0000
     45 H32J        2.5760    2.9860   -4.7220 H         1 LOC1        0.0000
     46 O32         2.0850    0.9710   -4.3330 O.3       1 LOC1        0.0000
     47 CC1         0.7960    1.2540   -4.2290 C.2       1 LOC1        0.0000
     48 OC1         0.3240    2.3710   -4.0980 O.2       1 LOC1        0.0000
     49 CC2         0.0130   -0.0500   -4.3940 C.3       1 LOC1        0.0000
     50 H2R         0.2080   -0.6600   -3.4860 H         1 LOC1        0.0000
     51 H2S         0.4240   -0.5900   -5.2680 H         1 LOC1        0.0000
     52 C33         4.3530    1.7680   -4.7290 C.3       1 LOC1        0.0000
     53 H33J        4.7790    0.9450   -4.1100 H         1 LOC1        0.0000
     54 H33K        5.0030    2.6660   -4.6160 H         1 LOC1        0.0000
     55 O33         4.2450    1.3670   -6.1130 O.3       1 LOC1        0.0000
     56 CD1         5.4060    1.0710   -6.6790 C.2       1 LOC1        0.0000
     57 OD1         6.5050    1.2510   -6.1860 O.2       1 LOC1        0.0000
     58 CD2         5.1370    0.4490   -8.0500 C.3       1 LOC1        0.0000
     59 H2X         4.3210    1.0220   -8.5360 H         1 LOC1        0.0000
     60 H2Y         4.7810   -0.5870   -7.8700 H         1 LOC1        0.0000
     61 CA3        -3.4770   -3.4220   -4.0140 C.3       1 LOC1        0.0000
     62 H3A        -3.7910   -4.4900   -4.0110 H         1 LOC1        0.0000
     63 H3B        -2.4980   -3.3540   -4.5390 H         1 LOC1        0.0000
     64 CA4        -4.5120   -2.5990   -4.7920 C.3       1 LOC1        0.0000
     65 H4A        -4.2050   -1.5280   -4.7600 H         1 LOC1        0.0000
     66 H4B        -5.5030   -2.6770   -4.2920 H         1 LOC1        0.0000
     67 CA5        -4.6410   -3.0310   -6.2610 C.3       1 LOC1        0.0000
     68 H5A        -3.6310   -3.0260   -6.7240 H         1 LOC1        0.0000
     69 H5B        -5.2650   -2.2820   -6.7990 H         1 LOC1        0.0000
     70 CA6        -5.2830   -4.4140   -6.4490 C.3       1 LOC1        0.0000
     71 H6A        -6.2820   -4.4010   -5.9570 H         1 LOC1        0.0000
     72 H6B        -4.6690   -5.1940   -5.9470 H         1 LOC1        0.0000
     73 CA7        -5.4680   -4.7970   -7.9270 C.3       1 LOC1        0.0000
     74 H7A        -5.9650   -3.9490   -8.4530 H         1 LOC1        0.0000
     75 H7B        -6.1530   -5.6740   -7.9800 H         1 LOC1        0.0000
     76 CA8        -4.1480   -5.1530   -8.6370 C.3       1 LOC1        0.0000
     77 H8A        -3.6990   -6.0350   -8.1290 H         1 LOC1        0.0000
     78 H8B        -3.4300   -4.3180   -8.4980 H         1 LOC1        0.0000
     79 CA9        -4.3800   -5.4600  -10.0980 C.2       1 LOC1        0.0000
     80 H9A        -4.8870   -6.4190  -10.2870 H         1 LOC1        0.0000
     81 CA10       -4.0510   -4.6880  -11.1530 C.2       1 LOC1        0.0000
     82 H10A       -4.2860   -5.0580  -12.1630 H         1 LOC1        0.0000
     83 CA11       -3.3690   -3.3400  -11.1160 C.3       1 LOC1        0.0000
     84 H11A       -2.3490   -3.4330  -11.5480 H         1 LOC1        0.0000
     85 H11B       -3.2100   -3.0000  -10.0730 H         1 LOC1        0.0000
     86 CA12       -4.1370   -2.2950  -11.8880 C.2       1 LOC1        0.0000
     87 H12A       -4.0010   -2.3380  -12.9800 H         1 LOC1        0.0000
     88 CA13       -4.9420   -1.3410  -11.3790 C.2       1 LOC1        0.0000
     89 H13A       -5.4360   -0.6460  -12.0750 H         1 LOC1        0.0000
     90 CA14       -5.2710   -1.1000   -9.9240 C.3       1 LOC1        0.0000
     91 H14A       -4.7560   -1.8160   -9.2460 H         1 LOC1        0.0000
     92 H14B       -6.3630   -1.2440   -9.7640 H         1 LOC1        0.0000
     93 CA15       -4.9060    0.3320   -9.4900 C.3       1 LOC1        0.0000
     94 H15A       -5.3770    1.0640  -10.1850 H         1 LOC1        0.0000
     95 H15B       -3.8030    0.4710   -9.5470 H         1 LOC1        0.0000
     96 CA16       -5.3780    0.6600   -8.0650 C.3       1 LOC1        0.0000
     97 H16A       -4.8770   -0.0210   -7.3420 H         1 LOC1        0.0000
     98 H16B       -6.4740    0.4790   -7.9960 H         1 LOC1        0.0000
     99 CA17       -5.0910    2.1140   -7.6680 C.3       1 LOC1        0.0000
    100 H17A       -5.5610    2.7900   -8.4180 H         1 LOC1        0.0000
    101 H17B       -3.9910    2.2870   -7.7080 H         1 LOC1        0.0000
    102 CA18       -5.6090    2.4780   -6.2740 C.3       1 LOC1        0.0000
    103 H18A       -5.1480    1.8250   -5.5020 H         1 LOC1        0.0000
    104 H18B       -6.7120    2.3520   -6.2230 H         1 LOC1        0.0000
    105 H18C       -5.3640    3.5340   -6.0290 H         1 LOC1        0.0000
    106 CB3         1.9630   -7.3310   -1.8860 C.3       1 LOC1        0.0000
    107 H3D         2.2540   -8.3870   -1.7030 H         1 LOC1        0.0000
    108 H3E         2.2390   -6.7490   -0.9720 H         1 LOC1        0.0000
    109 CB4         2.8010   -6.7260   -3.0210 C.3       1 LOC1        0.0000
    110 H4D         3.8450   -6.6180   -2.6480 H         1 LOC1        0.0000
    111 H4E         2.4180   -5.7050   -3.2390 H         1 LOC1        0.0000
    112 CB5         2.8260   -7.5540   -4.3130 C.3       1 LOC1        0.0000
    113 H5D         1.7820   -7.7510   -4.6450 H         1 LOC1        0.0000
    114 H5E         3.3040   -8.5360   -4.1000 H         1 LOC1        0.0000
    115 CB6         3.5820   -6.8630   -5.4640 C.3       1 LOC1        0.0000
    116 H6D         2.9970   -5.9740   -5.7890 H         1 LOC1        0.0000
    117 H6E         3.6360   -7.5580   -6.3310 H         1 LOC1        0.0000
    118 CB7         5.0050   -6.3980   -5.1000 C.3       1 LOC1        0.0000
    119 H7D         5.5980   -7.2650   -4.7380 H         1 LOC1        0.0000
    120 H7E         4.9370   -5.6530   -4.2730 H         1 LOC1        0.0000
    121 CB8         5.7170   -5.7220   -6.2850 C.3       1 LOC1        0.0000
    122 H8D         5.0290   -4.9300   -6.6390 H         1 LOC1        0.0000
    123 H8E         5.8270   -6.4550   -7.1140 H         1 LOC1        0.0000
    124 CB9         7.0550   -5.1290   -5.9200 C.2       1 LOC1        0.0000
    125 H9D         7.8350   -5.8660   -5.6720 H         1 LOC1        0.0000
    126 CB10        7.3570   -3.8150   -5.8590 C.2       1 LOC1        0.0000
    127 H10D        8.3800   -3.5250   -5.5730 H         1 LOC1        0.0000
    128 CB11        6.4380   -2.6500   -6.1510 C.3       1 LOC1        0.0000
    129 H11D        5.6730   -2.9340   -6.9040 H         1 LOC1        0.0000
    130 H11E        7.0290   -1.8440   -6.6380 H         1 LOC1        0.0000
    131 CB12        5.8050   -2.0910   -4.8940 C.2       1 LOC1        0.0000
    132 H12D        6.5250   -1.8090   -4.1100 H         1 LOC1        0.0000
    133 CB13        4.4960   -1.8760   -4.6470 C.2       1 LOC1        0.0000
    134 H13D        4.2090   -1.4400   -3.6740 H         1 LOC1        0.0000
    135 CB14        3.3280   -2.1550   -5.5590 C.3       1 LOC1        0.0000
    136 H14D        3.6610   -2.6170   -6.5090 H         1 LOC1        0.0000
    137 H14E        2.8150   -1.2020   -5.8210 H         1 LOC1        0.0000
    138 CB15        2.2990   -3.0990   -4.9100 C.3       1 LOC1        0.0000
    139 H15D        1.8500   -2.6130   -4.0140 H         1 LOC1        0.0000
    140 H15E        2.8180   -4.0230   -4.5700 H         1 LOC1        0.0000
    141 CB16        1.1820   -3.5020   -5.8820 C.3       1 LOC1        0.0000
    142 H16D        1.6400   -3.9750   -6.7730 H         1 LOC1        0.0000
    143 H16E        0.6470   -2.5910   -6.2210 H         1 LOC1        0.0000
    144 CB17        0.1690   -4.4840   -5.2840 C.3       1 LOC1        0.0000
    145 H17D       -0.3230   -3.9980   -4.4120 H         1 LOC1        0.0000
    146 H17E        0.7150   -5.3740   -4.8970 H         1 LOC1        0.0000
    147 CB18       -0.8950   -4.9430   -6.2860 C.3       1 LOC1        0.0000
    148 H18D       -0.4210   -5.4740   -7.1390 H         1 LOC1        0.0000
    149 H18E       -1.4560   -4.0710   -6.6860 H         1 LOC1        0.0000
    150 H18F       -1.6180   -5.6310   -5.7970 H         1 LOC1        0.0000
    151 CC3        -1.5130    0.1470   -4.5460 C.3       1 LOC1        0.0000
    152 H3R        -1.9100    0.6420   -3.6290 H         1 LOC1        0.0000
    153 H3S        -1.9770   -0.8640   -4.5920 H         1 LOC1        0.0000
    154 CC4        -1.9560    0.9440   -5.7880 C.3       1 LOC1        0.0000
    155 H4R        -1.6880    2.0140   -5.6360 H         1 LOC1        0.0000
    156 H4S        -3.0650    0.8930   -5.8510 H         1 LOC1        0.0000
    157 CC5        -1.3620    0.4820   -7.1310 C.3       1 LOC1        0.0000
    158 H5R        -0.2590    0.6140   -7.1000 H         1 LOC1        0.0000
    159 H5S        -1.7540    1.1420   -7.9370 H         1 LOC1        0.0000
    160 CC6        -1.7040   -0.9720   -7.4810 C.3       1 LOC1        0.0000
    161 H6R        -2.8090   -1.0920   -7.4530 H         1 LOC1        0.0000
    162 H6S        -1.2810   -1.6390   -6.6990 H         1 LOC1        0.0000
    163 CC7        -1.1970   -1.4390   -8.8580 C.3       1 LOC1        0.0000
    164 H7R        -1.8080   -0.9600   -9.6540 H         1 LOC1        0.0000
    165 H7S        -1.3720   -2.5370   -8.9170 H         1 LOC1        0.0000
    166 CC8         0.2920   -1.1410   -9.1150 C.3       1 LOC1        0.0000
    167 H8R         0.8390   -1.4220   -8.1900 H         1 LOC1        0.0000
    168 H8S         0.4170   -0.0420   -9.2460 H         1 LOC1        0.0000
    169 CC9         0.8200   -1.8750  -10.3260 C.2       1 LOC1        0.0000
    170 H9R         0.1850   -1.7880  -11.2200 H         1 LOC1        0.0000
    171 CC10        1.9490   -2.6070  -10.4060 C.2       1 LOC1        0.0000
    172 H10R        2.2030   -3.0890  -11.3650 H         1 LOC1        0.0000
    173 CC11        2.9530   -2.8220   -9.3000 C.3       1 LOC1        0.0000
    174 H11R        2.6540   -2.2920   -8.3700 H         1 LOC1        0.0000
    175 H11S        3.9340   -2.3870   -9.5800 H         1 LOC1        0.0000
    176 CC12        3.1420   -4.3050   -8.9220 C.3       1 LOC1        0.0000
    177 H12R        2.1470   -4.7710   -8.7400 H         1 LOC1        0.0000
    178 H12S        3.7000   -4.3400   -7.9680 H         1 LOC1        0.0000
    179 CC13        3.8810   -5.1840   -9.9390 C.3       1 LOC1        0.0000
    180 H13R        3.2270   -5.2600  -10.8240 H         1 LOC1        0.0000
    181 H13S        3.9870   -6.2070   -9.5120 H         1 LOC1        0.0000
    182 CC14        5.2620   -4.6850  -10.3900 C.3       1 LOC1        0.0000
    183 H14R        5.9700   -4.7620   -9.5370 H         1 LOC1        0.0000
    184 H14S        5.2100   -3.6160  -10.6780 H         1 LOC1        0.0000
    185 CC15        5.8130   -5.4590  -11.6020 C.3       1 LOC1        0.0000
    186 H15R        5.8700   -6.5420  -11.3530 H         1 LOC1        0.0000
    187 H15S        6.8470   -5.1020  -11.8100 H         1 LOC1        0.0000
    188 CC16        4.9660   -5.2700  -12.8720 C.3       1 LOC1        0.0000
    189 H16R        4.9070   -4.1880  -13.1210 H         1 LOC1        0.0000
    190 H16S        3.9290   -5.6240  -12.6920 H         1 LOC1        0.0000
    191 CC17        5.4940   -6.0350  -14.0890 C.3       1 LOC1        0.0000
    192 H17R        5.6370   -7.1010  -13.8030 H         1 LOC1        0.0000
    193 H17S        6.4890   -5.6300  -14.3740 H         1 LOC1        0.0000
    194 CC18        4.5440   -5.9620  -15.2880 C.3       1 LOC1        0.0000
    195 H18R        4.3740   -4.9050  -15.5860 H         1 LOC1        0.0000
    196 H18S        3.5600   -6.4080  -15.0270 H         1 LOC1        0.0000
    197 H18T        4.9610   -6.5130  -16.1570 H         1 LOC1        0.0000
    198 CD3         6.3890    0.4170   -8.9580 C.3       1 LOC1        0.0000
    199 H3X         7.2500   -0.0030   -8.3880 H         1 LOC1        0.0000
    200 H3Y         6.6590    1.4550   -9.2560 H         1 LOC1        0.0000
    201 CD4         6.1970   -0.4420  -10.2200 C.3       1 LOC1        0.0000
    202 H4X         6.0250   -1.4960   -9.9070 H         1 LOC1        0.0000
    203 H4Y         7.1360   -0.4210  -10.8180 H         1 LOC1        0.0000
    204 CD5         5.0310    0.0120  -11.1110 C.3       1 LOC1        0.0000
    205 H5X         5.2090    1.0540  -11.4570 H         1 LOC1        0.0000
    206 H5Y         4.0910    0.0080  -10.5150 H         1 LOC1        0.0000
    207 CD6         4.8170   -0.9040  -12.3260 C.3       1 LOC1        0.0000
    208 H6X         4.7160   -1.9490  -11.9580 H         1 LOC1        0.0000
    209 H6Y         5.7060   -0.8650  -12.9910 H         1 LOC1        0.0000
    210 CD7         3.5440   -0.5540  -13.1130 C.3       1 LOC1        0.0000
    211 H7X         3.6850    0.4010  -13.6650 H         1 LOC1        0.0000
    212 H7Y         2.7250   -0.3890  -12.3750 H         1 LOC1        0.0000
    213 CD8         3.0810   -1.6730  -14.0680 C.3       1 LOC1        0.0000
    214 H8X         2.0370   -1.4370  -14.3700 H         1 LOC1        0.0000
    215 H8Y         3.0360   -2.6260  -13.4960 H         1 LOC1        0.0000
    216 CD9         3.9800   -1.8410  -15.2670 C.2       1 LOC1        0.0000
    217 H9X         5.0560   -1.7490  -15.0540 H         1 LOC1        0.0000
    218 CD10        3.5920   -2.0830  -16.5350 C.2       1 LOC1        0.0000
    219 H10X        4.3690   -2.1820  -17.3100 H         1 LOC1        0.0000
    220 CD11        2.1780   -2.2580  -17.0400 C.3       1 LOC1        0.0000
    221 H11X        2.0480   -1.6660  -17.9720 H         1 LOC1        0.0000
    222 H11Y        1.4390   -1.8290  -16.3310 H         1 LOC1        0.0000
    223 CD12        1.8730   -3.7090  -17.3280 C.2       1 LOC1        0.0000
    224 H12X        2.3710   -4.1080  -18.2260 H         1 LOC1        0.0000
    225 CD13        1.0730   -4.5370  -16.6260 C.2       1 LOC1        0.0000
    226 H13X        0.9640   -5.5750  -16.9750 H         1 LOC1        0.0000
    227 CD14        0.2960   -4.2260  -15.3690 C.3       1 LOC1        0.0000
    228 H14X       -0.7870   -4.4110  -15.5440 H         1 LOC1        0.0000
    229 H14Y        0.3940   -3.1620  -15.0610 H         1 LOC1        0.0000
    230 CD15        0.7560   -5.1080  -14.1930 C.3       1 LOC1        0.0000
    231 H15X        1.8130   -4.8620  -13.9450 H         1 LOC1        0.0000
    232 H15Y        0.7200   -6.1810  -14.4890 H         1 LOC1        0.0000
    233 CD16       -0.1120   -4.9340  -12.9370 C.3       1 LOC1        0.0000
    234 H16X       -1.1730   -5.1610  -13.1830 H         1 LOC1        0.0000
    235 H16Y       -0.0580   -3.8750  -12.6000 H         1 LOC1        0.0000
    236 CD17        0.3410   -5.8530  -11.7950 C.3       1 LOC1        0.0000
    237 H17X        1.4130   -5.6430  -11.6020 H         1 LOC1        0.0000
    238 H17Y        0.2720   -6.9130  -12.1300 H         1 LOC1        0.0000
    239 CD18       -0.4450   -5.6810  -10.4920 C.3       1 LOC1        0.0000
    240 H18X       -1.5090   -5.9580  -10.6420 H         1 LOC1        0.0000
    241 H18Y       -0.4060   -4.6260  -10.1430 H         1 LOC1        0.0000
    242 H18Z       -0.0290   -6.3290   -9.6920 H         1 LOC1        0.0000
@<TRIPOS>BOND
     1  224  223 1 
     2  221  220 1 
     3  223  220 1 
     4  223  225 2 
     5  219  218 1 
     6  220  218 1 
     7  220  222 1 
     8  226  225 1 
     9  225  227 1 
    10  218  216 2 
    11  197  194 1 
    12  195  194 1 
    13  228  227 1 
    14  227  229 1 
    15  227  230 1 
    16  194  196 1 
    17  194  191 1 
    18  216  217 1 
    19  216  213 1 
    20  232  230 1 
    21  193  191 1 
    22  214  213 1 
    23  230  231 1 
    24  230  233 1 
    25  191  192 1 
    26  191  188 1 
    27  213  215 1 
    28  213  210 1 
    29  211  210 1 
    30  234  233 1 
    31  189  188 1 
    32  210  212 1 
    33  210  207 1 
    34  209  207 1 
    35   87   86 1 
    36  233  235 1 
    37  233  236 1 
    38  188  190 1 
    39  188  185 1 
    40  207  208 1 
    41  207  204 1 
    42   82   81 1 
    43  238  236 1 
    44   89   88 1 
    45   86   88 2 
    46   86   83 1 
    47  187  185 1 
    48  236  237 1 
    49  236  239 1 
    50  185  186 1 
    51  185  182 1 
    52   84   83 1 
    53  205  204 1 
    54   88   90 1 
    55  172  171 1 
    56  170  169 1 
    57   81   83 1 
    58   81   79 2 
    59   83   85 1 
    60  204  206 1 
    61  204  201 1 
    62  180  179 1 
    63  203  201 1 
    64  184  182 1 
    65  240  239 1 
    66  239  241 1 
    67  239  242 1 
    68  171  169 2 
    69  171  173 1 
    70  182  179 1 
    71  182  183 1 
    72  169  166 1 
    73   80   79 1 
    74  201  202 1 
    75  201  198 1 
    76   94   93 1 
    77   79   76 1 
    78  179  181 1 
    79  179  176 1 
    80   90   92 1 
    81   90   93 1 
    82   90   91 1 
    83  164  163 1 
    84  175  173 1 
    85   95   93 1 
    86   93   96 1 
    87  173  176 1 
    88  173  174 1 
    89  200  198 1 
    90  168  166 1 
    91  166  163 1 
    92  166  167 1 
    93  198  199 1 
    94  198   58 1 
    95  176  177 1 
    96  176  178 1 
    97  165  163 1 
    98  163  160 1 
    99   76   78 1 
   100   76   77 1 
   101   76   73 1 
   102   59   58 1 
   103   74   73 1 
   104  100   99 1 
   105   96   98 1 
   106   96   99 1 
   107   96   97 1 
   108   58   60 1 
   109   58   56 1 
   110   75   73 1 
   111  159  157 1 
   112   73   70 1 
   113  101   99 1 
   114   99  102 1 
   115  160  161 1 
   116  160  157 1 
   117  160  162 1 
   118  148  147 1 
   119  157  158 1 
   120  157  154 1 
   121  123  121 1 
   122  129  128 1 
   123   69   67 1 
   124  142  141 1 
   125   68   67 1 
   126  149  147 1 
   127   56   57 2 
   128   56   55 1 
   129  122  121 1 
   130  130  128 1 
   131  136  135 1 
   132   70   67 1 
   133   70   71 1 
   134   70   72 1 
   135  117  115 1 
   136  147  150 1 
   137  147  144 1 
   138  121  124 1 
   139  121  118 1 
   140  102  104 1 
   141  102  105 1 
   142  102  103 1 
   143   67   64 1 
   144  143  141 1 
   145  128  126 1 
   146  128  131 1 
   147   55   52 1 
   148  124  126 2 
   149  124  125 1 
   150  141  144 1 
   151  141  138 1 
   152  126  127 1 
   153  156  154 1 
   154  137  135 1 
   155  116  115 1 
   156  154  155 1 
   157  154  151 1 
   158  135  138 1 
   159  135  133 1 
   160  115  118 1 
   161  115  112 1 
   162  144  146 1 
   163  144  145 1 
   164   51   49 1 
   165  118  119 1 
   166  118  120 1 
   167  138  140 1 
   168  138  139 1 
   169  131  133 2 
   170  131  132 1 
   171   64   65 1 
   172   64   66 1 
   173   64   61 1 
   174   52   54 1 
   175   52   44 1 
   176   52   53 1 
   177   45   44 1 
   178  133  134 1 
   179  113  112 1 
   180  153  151 1 
   181  151   49 1 
   182  151  152 1 
   183   63   61 1 
   184   49   47 1 
   185   49   50 1 
   186   46   47 1 
   187   46   44 1 
   188  112  114 1 
   189  112  109 1 
   190   47   48 2 
   191   44    9 1 
   192   61   62 1 
   193   61   32 1 
   194  111  109 1 
   195  109  110 1 
   196  109  106 1 
   197   43   41 1 
   198    9   10 1 
   199    9   11 1 
   200    9    8 1 
   201   42   41 1 
   202   32   33 1 
   203   32   34 1 
   204   32   30 1 
   205   41  106 1 
   206   41   39 1 
   207   31   30 2 
   208    8    4 1 
   209  106  107 1 
   210  106  108 1 
   211   30   29 1 
   212   14   15 1 
   213   14   12 1 
   214   18   16 1 
   215   38   39 1 
   216   38   35 1 
   217    3    1 1 
   218   39   40 2 
   219   29   27 1 
   220    4    7 1 
   221    4    6 2 
   222    4    5 1 
   223   16   12 1 
   224   16   22 1 
   225   16   17 1 
   226    7    1 1 
   227   36   35 1 
   228   12    1 1 
   229   12   13 1 
   230    1    2 1 
   231   22   19 1 
   232   35   27 1 
   233   35   37 1 
   234   28   27 1 
   235   27   24 1 
   236   21   19 2 
   237   19   23 1 
   238   19   20 1 
   239   24   25 1 
   240   24   23 1 
   241   24   26 1 
