@<TRIPOS>MOLECULE
C:\Users\Praveer\PycharmProjects\pdb_to_mol2_converter\data\pdb\lppc.pdb
   70    69     0     0     0
SMALL
GASTEIGER

@<TRIPOS>ATOM
      1 N           1.5120   -0.0210    0.0100 N.4       1 LPP1        0.0000
      2 C13         0.0110   -0.0250    0.0120 C.3       1 LPP1        0.0000
      3 H13A       -0.4160   -1.0080    0.0850 H         1 LPP1        0.0000
      4 H13B       -0.3910    0.4850   -0.8620 H         1 LPP1        0.0000
      5 H13C       -0.3490    0.5920    0.8420 H         1 LPP1        0.0000
      6 C14         1.9900   -0.7350   -1.2170 C.3       1 LPP1        0.0000
      7 H14A        1.6310   -0.2250   -2.1060 H         1 LPP1        0.0000
      8 H14B        1.6100   -1.7490   -1.2420 H         1 LPP1        0.0000
      9 H14C        3.0700   -0.7690   -1.2580 H         1 LPP1        0.0000
     10 C15         1.9900   -0.7190    1.2450 C.3       1 LPP1        0.0000
     11 H15A        1.6160   -1.7310    1.2920 H         1 LPP1        0.0000
     12 H15B        1.6240   -0.1810    2.1160 H         1 LPP1        0.0000
     13 H15C        3.0700   -0.7340    1.2960 H         1 LPP1        0.0000
     14 C12         2.0120    1.4220    0.0050 C.3       1 LPP1        0.0000
     15 H12A        1.6120    1.9360   -0.8750 H         1 LPP1        0.0000
     16 H12B        3.0880    1.4400   -0.0900 H         1 LPP1        0.0000
     17 C11         1.6200    2.3380    1.1970 C.3       1 LPP1        0.0000
     18 H11A        2.1550    3.3130    1.1000 H         1 LPP1        0.0000
     19 H11B        1.9640    1.8870    2.1520 H         1 LPP1        0.0000
     20 P          -0.5160    3.3420    0.0810 P.3       1 LPP1        0.0000
     21 O13        -1.7560    2.5920   -0.2060 O.3       1 LPP1        0.0000
     22 O14         0.4440    3.4930   -1.0380 O.2       1 LPP1        0.0000
     23 O11        -0.8350    4.7470    0.7240 O.3       1 LPP1        0.0000
     24 O12         0.2130    2.5550    1.2620 O.3       1 LPP1        0.0000
     25 C1         -1.7280    4.8810    1.8230 C.3       1 LPP1        0.0000
     26 HA         -2.0420    3.9030    2.2660 H         1 LPP1        0.0000
     27 HB         -2.6490    5.4040    1.4770 H         1 LPP1        0.0000
     28 C2         -1.0400    5.7200    2.9070 C.3       1 LPP1        0.0000
     29 HS         -1.7760    5.9600    3.7050 H         1 LPP1        0.0000
     30 HR         -0.7010    6.6740    2.4460 H         1 LPP1        0.0000
     31 C3          0.1630    5.0120    3.5400 C.3       1 LPP1        0.0000
     32 HX          0.6870    5.7100    4.2320 H         1 LPP1        0.0000
     33 HY          0.8650    4.7240    2.7200 H         1 LPP1        0.0000
     34 O31        -0.3220    3.8670    4.2600 O.3       1 LPP1        0.0000
     35 C31         0.6230    3.0120    4.6100 C.2       1 LPP1        0.0000
     36 O32         1.8220    3.1650    4.4570 O.2       1 LPP1        0.0000
     37 C32        -0.0350    1.7920    5.2560 C.3       1 LPP1        0.0000
     38 H2X        -0.5780    1.2430    4.4600 H         1 LPP1        0.0000
     39 H2Y        -0.7730    2.1580    5.9990 H         1 LPP1        0.0000
     40 C33         0.9890    0.8660    5.9480 C.3       1 LPP1        0.0000
     41 H3X         1.5640    1.4500    6.7030 H         1 LPP1        0.0000
     42 H3Y         1.7180    0.4780    5.2010 H         1 LPP1        0.0000
     43 C34         0.3140   -0.3140    6.6590 C.3       1 LPP1        0.0000
     44 H4X        -0.2290   -0.9370    5.9150 H         1 LPP1        0.0000
     45 H4Y        -0.4380    0.0840    7.3790 H         1 LPP1        0.0000
     46 C35         1.3110   -1.1920    7.4280 C.3       1 LPP1        0.0000
     47 H5X         1.8700   -0.5540    8.1500 H         1 LPP1        0.0000
     48 H5Y         2.0510   -1.6230    6.7170 H         1 LPP1        0.0000
     49 C36         0.6270   -2.3280    8.2020 C.3       1 LPP1        0.0000
     50 H6X         0.0910   -2.9920    7.4870 H         1 LPP1        0.0000
     51 H6Y        -0.1320   -1.8890    8.8890 H         1 LPP1        0.0000
     52 C37         1.6160   -3.1620    9.0260 C.3       1 LPP1        0.0000
     53 H7X         2.1690   -2.4880    9.7180 H         1 LPP1        0.0000
     54 H7Y         2.3600   -3.6320    8.3450 H         1 LPP1        0.0000
     55 C38         0.9240   -4.2570    9.8510 C.3       1 LPP1        0.0000
     56 H8X         0.3850   -4.9480    9.1650 H         1 LPP1        0.0000
     57 H8Y         0.1680   -3.7840   10.5180 H         1 LPP1        0.0000
     58 C39         1.9100   -5.0630   10.7080 C.3       1 LPP1        0.0000
     59 H9X         2.4590   -4.3660   11.3810 H         1 LPP1        0.0000
     60 H9Y         2.6570   -5.5510   10.0440 H         1 LPP1        0.0000
     61 C310        1.2160   -6.1350   11.5600 C.3       1 LPP1        0.0000
     62 H10X        0.6710   -6.8380   10.8900 H         1 LPP1        0.0000
     63 H10Y        0.4640   -5.6460   12.2200 H         1 LPP1        0.0000
     64 C311        2.2000   -6.9300   12.4270 C.3       1 LPP1        0.0000
     65 H11X        2.7480   -6.2200   13.0880 H         1 LPP1        0.0000
     66 H11Y        2.9520   -7.4150   11.7630 H         1 LPP1        0.0000
     67 C312        1.5240   -7.9990   13.2890 C.3       1 LPP1        0.0000
     68 H12X        0.9900   -8.7340   12.6490 H         1 LPP1        0.0000
     69 H12Y        0.7860   -7.5340   13.9780 H         1 LPP1        0.0000
     70 H12Z        2.2770   -8.5450   13.8970 H         1 LPP1        0.0000
@<TRIPOS>BOND
     1    7    6 1 
     2    9    6 1 
     3    8    6 1 
     4    6    1 1 
     5   22   20 2 
     6   15   14 1 
     7    4    2 1 
     8   21   20 1 
     9   16   14 1 
    10   14    1 1 
    11   14   17 1 
    12    1    2 1 
    13    1   10 1 
    14    2    3 1 
    15    2    5 1 
    16   20   23 1 
    17   20   24 1 
    18   23   25 1 
    19   18   17 1 
    20   17   24 1 
    21   17   19 1 
    22   10   11 1 
    23   10   13 1 
    24   10   12 1 
    25   27   25 1 
    26   25   26 1 
    27   25   28 1 
    28   30   28 1 
    29   33   31 1 
    30   28   31 1 
    31   28   29 1 
    32   31   32 1 
    33   31   34 1 
    34   34   35 1 
    35   36   35 2 
    36   38   37 1 
    37   35   37 1 
    38   42   40 1 
    39   37   40 1 
    40   37   39 1 
    41   44   43 1 
    42   40   43 1 
    43   40   41 1 
    44   43   45 1 
    45   43   46 1 
    46   48   46 1 
    47   46   47 1 
    48   46   49 1 
    49   50   49 1 
    50   49   51 1 
    51   49   52 1 
    52   54   52 1 
    53   52   53 1 
    54   52   55 1 
    55   56   55 1 
    56   55   57 1 
    57   55   58 1 
    58   60   58 1 
    59   58   59 1 
    60   58   61 1 
    61   62   61 1 
    62   61   63 1 
    63   61   64 1 
    64   66   64 1 
    65   64   65 1 
    66   64   67 1 
    67   68   67 1 
    68   67   70 1 
    69   67   69 1 
