@<TRIPOS>MOLECULE
C:\Users\Praveer\PycharmProjects\pdb_to_mol2_converter\data\pdb\lsm.pdb
  151   150     0     0     0
SMALL
GASTEIGER

@<TRIPOS>ATOM
      1 N          21.4470    4.8100    6.7260 N.4       1 LSM1        0.0000
      2 C15        22.5040    5.7910    7.1250 C.3       1 LSM1        0.0000
      3 H15A       22.4060    6.6950    6.5320 H         1 LSM1        0.0000
      4 H15B       23.4930    5.3850    6.9570 H         1 LSM1        0.0000
      5 H15C       22.4100    6.0640    8.1670 H         1 LSM1        0.0000
      6 C14        21.6080    4.4610    5.2730 C.3       1 LSM1        0.0000
      7 H14A       22.5660    4.0320    5.0410 H         1 LSM1        0.0000
      8 H14B       21.4370    5.3350    4.6410 H         1 LSM1        0.0000
      9 H14C       20.8160    3.7760    4.9620 H         1 LSM1        0.0000
     10 C13        21.5780    3.5460    7.5210 C.3       1 LSM1        0.0000
     11 H13A       21.4580    3.7310    8.5800 H         1 LSM1        0.0000
     12 H13B       22.5450    3.0880    7.3570 H         1 LSM1        0.0000
     13 H13C       20.8180    2.8340    7.2110 H         1 LSM1        0.0000
     14 C12        20.0600    5.4010    6.9270 C.3       1 LSM1        0.0000
     15 H12A       19.8340    5.5350    7.9740 H         1 LSM1        0.0000
     16 H12B       19.3260    4.6800    6.5490 H         1 LSM1        0.0000
     17 C11        19.7430    6.7140    6.1800 C.3       1 LSM1        0.0000
     18 H11A       20.5690    7.0430    5.5080 H         1 LSM1        0.0000
     19 H11B       19.5970    7.5270    6.9250 H         1 LSM1        0.0000
     20 P          18.5410    5.5350    4.2230 P.3       1 LSM1        0.0000
     21 O13        19.7050    5.8930    3.3760 O.2       1 LSM1        0.0000
     22 O14        18.5240    4.1630    4.7740 O.3       1 LSM1        0.0000
     23 O11        17.2030    5.8710    3.4530 O.3       1 LSM1        0.0000
     24 O12        18.5320    6.5410    5.4490 O.3       1 LSM1        0.0000
     25 C1S        16.8960    7.1980    3.0040 C.3       1 LSM1        0.0000
     26 H1S        17.4610    7.9830    3.5600 H         1 LSM1        0.0000
     27 H1T        15.8210    7.3790    3.2070 H         1 LSM1        0.0000
     28 NF         18.5510    7.1460    1.2090 N.am      1 LSM1        0.0000
     29 HNF        19.0830    6.8250    2.0040 H         1 LSM1        0.0000
     30 C2S        17.1510    7.3910    1.4710 C.3       1 LSM1        0.0000
     31 H2S        16.5890    6.5730    0.9590 H         1 LSM1        0.0000
     32 C3S        16.5840    8.7420    0.9410 C.3       1 LSM1        0.0000
     33 H3S        16.8920    8.9130   -0.1110 H         1 LSM1        0.0000
     34 O3         17.0670    9.8580    1.6890 O.3       1 LSM1        0.0000
     35 HO3        17.8500    9.5310    2.1370 H         1 LSM1        0.0000
     36 C4S        15.0840    8.7500    1.0250 C.2       1 LSM1        0.0000
     37 H4S        14.6710    9.0430    1.9990 H         1 LSM1        0.0000
     38 C5S        14.2600    8.4650   -0.0020 C.2       1 LSM1        0.0000
     39 H5S        14.6920    8.1980   -0.9820 H         1 LSM1        0.0000
     40 C6S        12.7550    8.4700    0.0680 C.3       1 LSM1        0.0000
     41 H6S        12.3390    9.0490   -0.7870 H         1 LSM1        0.0000
     42 H6T        12.3870    8.9560    1.0010 H         1 LSM1        0.0000
     43 C7S        12.1900    7.0380    0.0180 C.3       1 LSM1        0.0000
     44 H7S        12.5610    6.4610    0.8960 H         1 LSM1        0.0000
     45 H7T        12.5470    6.5210   -0.9020 H         1 LSM1        0.0000
     46 C8S        10.6550    7.0160    0.0260 C.3       1 LSM1        0.0000
     47 H8S        10.2790    7.5700   -0.8630 H         1 LSM1        0.0000
     48 H8T        10.2890    7.5460    0.9340 H         1 LSM1        0.0000
     49 C9S        10.0790    5.5940    0.0100 C.3       1 LSM1        0.0000
     50 H9S        10.4450    5.0420    0.9050 H         1 LSM1        0.0000
     51 H9T        10.4500    5.0590   -0.8930 H         1 LSM1        0.0000
     52 C10S        8.5440    5.5870    0.0060 C.3       1 LSM1        0.0000
     53 H10S        8.1820    6.1350   -0.8930 H         1 LSM1        0.0000
     54 H10T        8.1770    6.1310    0.9050 H         1 LSM1        0.0000
     55 C11S        7.9490    4.1720    0.0010 C.3       1 LSM1        0.0000
     56 H11S        8.3090    3.6210    0.8990 H         1 LSM1        0.0000
     57 H11T        8.3110    3.6260   -0.8990 H         1 LSM1        0.0000
     58 C12S        6.4140    4.1840    0.0000 C.3       1 LSM1        0.0000
     59 H12S        6.0560    4.7350   -0.8990 H         1 LSM1        0.0000
     60 H12T        6.0560    4.7350    0.8990 H         1 LSM1        0.0000
     61 C13S        5.8060    2.7750   -0.0000 C.3       1 LSM1        0.0000
     62 H13S        6.1630    2.2240    0.8980 H         1 LSM1        0.0000
     63 H13T        6.1630    2.2250   -0.8990 H         1 LSM1        0.0000
     64 C14S        4.2710    2.7950   -0.0000 C.3       1 LSM1        0.0000
     65 H14S        3.9140    3.3470   -0.8990 H         1 LSM1        0.0000
     66 H14T        3.9140    3.3460    0.8980 H         1 LSM1        0.0000
     67 C15S        3.6610    1.3860   -0.0000 C.3       1 LSM1        0.0000
     68 H15S        4.0190    0.8360    0.8990 H         1 LSM1        0.0000
     69 H15T        4.0190    0.8360   -0.8990 H         1 LSM1        0.0000
     70 C16S        2.1260    1.4040   -0.0010 C.3       1 LSM1        0.0000
     71 H16S        1.7680    1.9540   -0.8990 H         1 LSM1        0.0000
     72 H16T        1.7670    1.9540    0.8980 H         1 LSM1        0.0000
     73 C17S        1.5180   -0.0050   -0.0010 C.3       1 LSM1        0.0000
     74 H17S        1.8840   -0.5530    0.8970 H         1 LSM1        0.0000
     75 H17T        1.8850   -0.5530   -0.8990 H         1 LSM1        0.0000
     76 C18S       -0.0130   -0.0070   -0.0010 C.3       1 LSM1        0.0000
     77 H18S       -0.4020    0.5140   -0.9030 H         1 LSM1        0.0000
     78 H18T       -0.4030    0.5140    0.9000 H         1 LSM1        0.0000
     79 H18U       -0.4020   -1.0480   -0.0020 H         1 LSM1        0.0000
     80 C1F        19.0090    6.9170   -0.0180 C.2       1 LSM1        0.0000
     81 OF         18.2810    7.0180   -0.9970 O.2       1 LSM1        0.0000
     82 C2F        20.4180    6.4180   -0.1150 C.3       1 LSM1        0.0000
     83 H2F        20.3900    5.3060   -0.1050 H         1 LSM1        0.0000
     84 H2G        20.9880    6.7600    0.7760 H         1 LSM1        0.0000
     85 C3F        21.1270    6.9010   -1.3980 C.3       1 LSM1        0.0000
     86 H3F        21.1820    8.0130   -1.4040 H         1 LSM1        0.0000
     87 H3G        20.5350    6.5840   -2.2870 H         1 LSM1        0.0000
     88 C4F        22.5450    6.3250   -1.5090 C.3       1 LSM1        0.0000
     89 H4F        22.4800    5.2140   -1.4850 H         1 LSM1        0.0000
     90 H4G        23.1440    6.6450   -0.6280 H         1 LSM1        0.0000
     91 C5F        23.2690    6.7490   -2.7910 C.3       1 LSM1        0.0000
     92 H5F        23.3790    7.8560   -2.8060 H         1 LSM1        0.0000
     93 H5G        22.6480    6.4590   -3.6680 H         1 LSM1        0.0000
     94 C6F        24.6500    6.0920   -2.9130 C.3       1 LSM1        0.0000
     95 H6F        24.5240    4.9870   -2.8590 H         1 LSM1        0.0000
     96 H6G        25.2810    6.4040   -2.0500 H         1 LSM1        0.0000
     97 C7F        25.3660    6.4470   -4.2210 C.3       1 LSM1        0.0000
     98 H7F        25.5190    7.5480   -4.2720 H         1 LSM1        0.0000
     99 H7G        24.7200    6.1530   -5.0800 H         1 LSM1        0.0000
    100 C8F        26.7200    5.7380   -4.3470 C.3       1 LSM1        0.0000
    101 H8F        26.5610    4.6380   -4.2710 H         1 LSM1        0.0000
    102 H8G        27.3720    6.0440   -3.4990 H         1 LSM1        0.0000
    103 C9F        27.4300    6.0490   -5.6690 C.3       1 LSM1        0.0000
    104 H9F        27.5860    7.1480   -5.7520 H         1 LSM1        0.0000
    105 H9G        26.7770    5.7350   -6.5150 H         1 LSM1        0.0000
    106 C10F       28.7820    5.3350   -5.7830 C.3       1 LSM1        0.0000
    107 H10F       28.6230    4.2380   -5.6750 H         1 LSM1        0.0000
    108 H10G       29.4400    5.6650   -4.9490 H         1 LSM1        0.0000
    109 C11F       29.4830    5.6080   -7.1190 C.3       1 LSM1        0.0000
    110 H11F       29.6340    6.7040   -7.2370 H         1 LSM1        0.0000
    111 H11G       28.8260    5.2650   -7.9500 H         1 LSM1        0.0000
    112 C12F       30.8370    4.8970   -7.2250 C.3       1 LSM1        0.0000
    113 H12F       30.6880    3.8040   -7.0730 H         1 LSM1        0.0000
    114 H12G       31.5070    5.2620   -6.4140 H         1 LSM1        0.0000
    115 C13F       31.5150    5.1240   -8.5810 C.3       1 LSM1        0.0000
    116 H13F       31.6710    6.2150   -8.7360 H         1 LSM1        0.0000
    117 H13G       30.8390    4.7610   -9.3890 H         1 LSM1        0.0000
    118 C14F       32.8620    4.4000   -8.6940 C.3       1 LSM1        0.0000
    119 H14F       32.7050    3.3120   -8.5190 H         1 LSM1        0.0000
    120 H14G       33.5470    4.7750   -7.9000 H         1 LSM1        0.0000
    121 C15F       33.5220    4.5960  -10.0640 C.3       1 LSM1        0.0000
    122 H15F       33.6920    5.6830  -10.2370 H         1 LSM1        0.0000
    123 H15G       32.8310    4.2310  -10.8560 H         1 LSM1        0.0000
    124 C16F       34.8570    3.8510  -10.1820 C.3       1 LSM1        0.0000
    125 H16F       34.6860    2.7670   -9.9990 H         1 LSM1        0.0000
    126 H16G       35.5530    4.2210   -9.3950 H         1 LSM1        0.0000
    127 C17F       35.5120    4.0300  -11.5570 C.3       1 LSM1        0.0000
    128 H17F       35.6920    5.1130  -11.7380 H         1 LSM1        0.0000
    129 H17G       34.8130    3.6670  -12.3440 H         1 LSM1        0.0000
    130 C18F       36.8400    3.2720  -11.6770 C.3       1 LSM1        0.0000
    131 H18F       36.6570    2.1870  -11.5080 H         1 LSM1        0.0000
    132 H18G       37.5350    3.6260  -10.8830 H         1 LSM1        0.0000
    133 C19F       37.5040    3.4630  -13.0460 C.3       1 LSM1        0.0000
    134 H19F       37.6920    4.5470  -13.2110 H         1 LSM1        0.0000
    135 H19G       36.8070    3.1160  -13.8420 H         1 LSM1        0.0000
    136 C20F       38.8280    2.6980  -13.1690 C.3       1 LSM1        0.0000
    137 H20F       38.6370    1.6120  -13.0180 H         1 LSM1        0.0000
    138 H20G       39.5200    3.0350  -12.3650 H         1 LSM1        0.0000
    139 C21F       39.5030    2.9060  -14.5310 C.3       1 LSM1        0.0000
    140 H21F       39.6950    3.9920  -14.6800 H         1 LSM1        0.0000
    141 H21G       38.8120    2.5710  -15.3360 H         1 LSM1        0.0000
    142 C22F       40.8280    2.1410  -14.6550 C.3       1 LSM1        0.0000
    143 H22F       40.6360    1.0540  -14.5090 H         1 LSM1        0.0000
    144 H22G       41.5170    2.4740  -13.8470 H         1 LSM1        0.0000
    145 C23F       41.5070    2.3530  -16.0130 C.3       1 LSM1        0.0000
    146 H23F       41.6910    3.4430  -16.1550 H         1 LSM1        0.0000
    147 H23G       40.8100    2.0250  -16.8180 H         1 LSM1        0.0000
    148 C24F       42.8300    1.5960  -16.1530 C.3       1 LSM1        0.0000
    149 H24F       42.6670    0.5030  -16.0380 H         1 LSM1        0.0000
    150 H24G       43.5510    1.9270  -15.3730 H         1 LSM1        0.0000
    151 H24H       43.2830    1.7810  -17.1510 H         1 LSM1        0.0000
@<TRIPOS>BOND
     1  151  148 1 
     2  147  145 1 
     3  146  145 1 
     4  148  149 1 
     5  148  145 1 
     6  148  150 1 
     7  145  142 1 
     8  141  139 1 
     9  140  139 1 
    10  142  139 1 
    11  142  143 1 
    12  142  144 1 
    13  139  136 1 
    14  135  133 1 
    15  134  133 1 
    16  136  133 1 
    17  136  137 1 
    18  136  138 1 
    19  133  130 1 
    20  129  127 1 
    21  128  127 1 
    22  130  127 1 
    23  130  131 1 
    24  130  132 1 
    25  127  124 1 
    26  123  121 1 
    27  122  121 1 
    28  124  121 1 
    29  124  125 1 
    30  124  126 1 
    31  121  118 1 
    32  117  115 1 
    33  116  115 1 
    34  118  115 1 
    35  118  119 1 
    36  118  120 1 
    37  115  112 1 
    38  111  109 1 
    39  110  109 1 
    40  112  109 1 
    41  112  113 1 
    42  112  114 1 
    43  109  106 1 
    44  105  103 1 
    45  106  107 1 
    46  106  103 1 
    47  106  108 1 
    48  104  103 1 
    49  103  100 1 
    50   99   97 1 
    51  100  101 1 
    52  100   97 1 
    53  100  102 1 
    54   98   97 1 
    55   97   94 1 
    56   93   91 1 
    57   94   95 1 
    58   94   91 1 
    59   94   96 1 
    60   92   91 1 
    61   91   88 1 
    62   87   85 1 
    63   88   89 1 
    64   88   85 1 
    65   88   90 1 
    66   86   85 1 
    67   85   82 1 
    68   81   80 2 
    69   39   38 1 
    70   77   76 1 
    71   45   43 1 
    72   71   70 1 
    73   75   73 1 
    74   63   61 1 
    75   65   64 1 
    76   59   58 1 
    77   57   55 1 
    78   69   67 1 
    79   53   52 1 
    80   51   49 1 
    81   47   46 1 
    82   41   40 1 
    83   82   83 1 
    84   82   80 1 
    85   82   84 1 
    86   33   32 1 
    87   80   28 am
    88   79   76 1 
    89   38   40 1 
    90   38   36 2 
    91   70   73 1 
    92   70   67 1 
    93   70   72 1 
    94   73   76 1 
    95   73   74 1 
    96   76   78 1 
    97   58   61 1 
    98   58   55 1 
    99   58   60 1 
   100   67   64 1 
   101   67   68 1 
   102   61   64 1 
   103   61   62 1 
   104   64   66 1 
   105   55   52 1 
   106   55   56 1 
   107   52   49 1 
   108   52   54 1 
   109   49   46 1 
   110   49   50 1 
   111   43   46 1 
   112   43   40 1 
   113   43   44 1 
   114   46   48 1 
   115   40   42 1 
   116   32   36 1 
   117   32   30 1 
   118   32   34 1 
   119   31   30 1 
   120   36   37 1 
   121   28   30 1 
   122   28   29 1 
   123   30   25 1 
   124   34   35 1 
   125   25   27 1 
   126   25   23 1 
   127   25   26 1 
   128   21   20 2 
   129   23   20 1 
   130   20   22 1 
   131   20   24 1 
   132    8    6 1 
   133    9    6 1 
   134    7    6 1 
   135    6    1 1 
   136   24   17 1 
   137   18   17 1 
   138   17   19 1 
   139   17   14 1 
   140    3    2 1 
   141   16   14 1 
   142    1   14 1 
   143    1    2 1 
   144    1   10 1 
   145   14   15 1 
   146    4    2 1 
   147    2    5 1 
   148   13   10 1 
   149   12   10 1 
   150   10   11 1 
