@<TRIPOS>MOLECULE
C:\Users\Praveer\PycharmProjects\pdb_to_mol2_converter\data\pdb\lthrol.pdb
   18    17     0     0     0
SMALL
GASTEIGER

@<TRIPOS>ATOM
      1 C1          0.0050    0.0480    0.0110 C.3       1 LTH1        0.0000
      2 H11        -0.3420   -1.0100    0.0610 H         1 LTH1        0.0000
      3 H12        -0.4080    0.5800    0.8970 H         1 LTH1        0.0000
      4 O1         -0.5050    0.6220   -1.1950 O.3       1 LTH1        0.0000
      5 HO1        -0.7040    1.5460   -1.0090 H         1 LTH1        0.0000
      6 C2          1.5190    0.0850   -0.0150 C.3       1 LTH1        0.0000
      7 H2          1.8690   -0.4130   -0.9510 H         1 LTH1        0.0000
      8 O2          1.9910   -0.6610    1.1190 O.3       1 LTH1        0.0000
      9 HO2         2.6340   -1.2870    0.7680 H         1 LTH1        0.0000
     10 C3          2.0820    1.5020    0.0460 C.3       1 LTH1        0.0000
     11 H3          1.6850    2.0830   -0.8210 H         1 LTH1        0.0000
     12 O3          1.6640    2.1520    1.2510 O.3       1 LTH1        0.0000
     13 HO3         1.6300    1.4240    1.8880 H         1 LTH1        0.0000
     14 C4          3.5940    1.5570   -0.0070 C.3       1 LTH1        0.0000
     15 H41         4.0430    1.0620    0.8830 H         1 LTH1        0.0000
     16 H42         3.9230    2.6220   -0.0180 H         1 LTH1        0.0000
     17 O4          4.0610    0.9100   -1.1960 O.3       1 LTH1        0.0000
     18 HO4         5.0060    1.0910   -1.2670 H         1 LTH1        0.0000
@<TRIPOS>BOND
     1   18   17 1 
     2   17   14 1 
     3    4    5 1 
     4    4    1 1 
     5    7    6 1 
     6   11   10 1 
     7   16   14 1 
     8    6    1 1 
     9    6   10 1 
    10    6    8 1 
    11   14   10 1 
    12   14   15 1 
    13    1    2 1 
    14    1    3 1 
    15   10   12 1 
    16    9    8 1 
    17   12   13 1 
