@<TRIPOS>MOLECULE
C:\Users\Praveer\PycharmProjects\pdb_to_mol2_converter\data\pdb\m6pa.pdb
   23    24     0     0     0
SMALL
GASTEIGER

@<TRIPOS>ATOM
      1 N9          1.3450    0.0110   -0.0520 N.ar      1 M6P1        0.0000
      2 H9          1.8810   -0.8330   -0.1050 H         1 M6P1        0.0000
      3 C8          1.7500    1.3140   -0.0180 C.ar      1 M6P1        0.0000
      4 H8          2.8040    1.6050   -0.0370 H         1 M6P1        0.0000
      5 N7          0.7380    2.1620    0.0380 N.ar      1 M6P1        0.0000
      6 C5         -0.4120    1.3440    0.0420 C.ar      1 M6P1        0.0000
      7 C6         -1.8140    1.5990    0.0770 C.3       1 M6P1        0.0000
      8 N1         -2.6050    0.4620    0.0460 N.2       1 M6P1        0.0000
      9 C2         -2.0880   -0.7920   -0.0080 C.2       1 M6P1        0.0000
     10 H2         -2.7900   -1.6310   -0.0280 H         1 M6P1        0.0000
     11 N3         -0.7690   -1.0730   -0.0410 N.pl3     1 M6P1        0.0000
     12 C4         -0.0050    0.0050   -0.0170 C.ar      1 M6P1        0.0000
     13 N6         -2.4360    2.8950    0.1310 N.am      1 M6P1        0.0000
     14 C16        -1.5430    4.0630    0.2420 C.3       1 M6P1        0.0000
     15 H161       -0.9870    4.1630   -0.7170 H         1 M6P1        0.0000
     16 H162       -0.8380    3.8860    1.0840 H         1 M6P1        0.0000
     17 H163       -2.0790    5.0140    0.4620 H         1 M6P1        0.0000
     18 C10        -3.7840    3.1870    0.0360 C.2       1 M6P1        0.0000
     19 O10        -4.1640    4.3500   -0.0550 O.2       1 M6P1        0.0000
     20 C11        -4.8910    2.1890    0.0420 C.3       1 M6P1        0.0000
     21 H111       -4.8390    1.5600    0.9550 H         1 M6P1        0.0000
     22 H112       -4.8410    1.5480   -0.8630 H         1 M6P1        0.0000
     23 H113       -5.8650    2.7240    0.0400 H         1 M6P1        0.0000
@<TRIPOS>BOND
     1   22   20 1 
     2   15   14 1 
     3    2    1 1 
     4   19   18 2 
     5    1    3 ar
     6    1   12 ar
     7   11   12 1 
     8   11    9 1 
     9    4    3 1 
    10   10    9 1 
    11    3    5 ar
    12   12    6 ar
    13    9    8 2 
    14   18   20 1 
    15   18   13 am
    16    5    6 ar
    17   23   20 1 
    18    6    7 1 
    19   20   21 1 
    20    8    7 1 
    21    7   13 1 
    22   13   14 1 
    23   14   17 1 
    24   14   16 1 
