@<TRIPOS>MOLECULE
C:\Users\Praveer\PycharmProjects\pdb_to_mol2_converter\data\pdb\maes.pdb
   17    16     0     0     0
SMALL
GASTEIGER

@<TRIPOS>ATOM
      1 C7          1.0910   -0.0060   -0.0240 C.3       1 MAE1        0.0000
      2 H71         1.4910   -0.4680   -0.9510 H         1 MAE1        0.0000
      3 H72        -0.0190    0.0030   -0.0080 H         1 MAE1        0.0000
      4 H73         1.5160   -0.4850    0.8850 H         1 MAE1        0.0000
      5 N8          1.5450    1.4170   -0.0140 N.4       1 MAE1        0.0000
      6 H81         1.3010    1.9140   -0.8540 H         1 MAE1        0.0000
      7 H82         2.5700    1.4790   -0.0020 H         1 MAE1        0.0000
      8 C9          1.1410    2.2600    1.1830 C.3       1 MAE1        0.0000
      9 H91         1.2470    1.5820    2.0500 H         1 MAE1        0.0000
     10 H92         0.0740    2.4840    1.0290 H         1 MAE1        0.0000
     11 C10         1.9950    3.5260    1.3530 C.3       1 MAE1        0.0000
     12 H101        1.7580    4.0270    2.3130 H         1 MAE1        0.0000
     13 H102        1.8450    4.2470    0.5260 H         1 MAE1        0.0000
     14 S11         3.7410    3.1050    1.3900 S.3       1 MAE1        0.0000
     15 O111        3.7680    2.0840    2.4100 O.3       1 MAE1        0.0000
     16 O112        3.9560    2.6030    0.0480 O.3       1 MAE1        0.0000
     17 O113        4.4000    4.3450    1.7100 O.3       1 MAE1        0.0000
@<TRIPOS>BOND
     1    2    1 1 
     2    6    5 1 
     3    1    5 1 
     4    1    3 1 
     5    1    4 1 
     6    5    7 1 
     7    5    8 1 
     8   16   14 1 
     9   13   11 1 
    10   10    8 1 
    11    8   11 1 
    12    8    9 1 
    13   11   14 1 
    14   11   12 1 
    15   14   17 1 
    16   14   15 1 
