@<TRIPOS>MOLECULE
C:\Users\Praveer\PycharmProjects\pdb_to_mol2_converter\data\pdb\mallol.pdb
   26    25     0     0     0
SMALL
GASTEIGER

@<TRIPOS>ATOM
      1 C1         -0.0180   -0.0160   -0.0250 C.3       1 MAL1        0.0000
      2 H11        -0.4310    0.3650    0.9350 H         1 MAL1        0.0000
      3 H12        -0.4320    0.6060   -0.8510 H         1 MAL1        0.0000
      4 O1         -0.4450   -1.3650   -0.2260 O.3       1 MAL1        0.0000
      5 HO1         0.1530   -1.8690    0.3470 H         1 MAL1        0.0000
      6 C2          1.5010    0.0300   -0.0060 C.3       1 MAL1        0.0000
      7 H2          1.8850   -0.3770   -0.9710 H         1 MAL1        0.0000
      8 O2          1.9640   -0.8000    1.0740 O.3       1 MAL1        0.0000
      9 HO2         2.8820   -0.5170    1.2340 H         1 MAL1        0.0000
     10 C3          2.0390    1.4440    0.1970 C.3       1 MAL1        0.0000
     11 H3          1.7460    1.8110    1.2080 H         1 MAL1        0.0000
     12 O3          1.4120    2.3060   -0.7590 O.3       1 MAL1        0.0000
     13 HO3         2.1350    2.8160   -1.1780 H         1 MAL1        0.0000
     14 C4          3.5630    1.5140    0.0300 C.3       1 MAL1        0.0000
     15 H4          3.8490    0.9250   -0.8750 H         1 MAL1        0.0000
     16 O4          4.1660    0.8900    1.1780 O.3       1 MAL1        0.0000
     17 HO4         4.1150    1.5130    1.9150 H         1 MAL1        0.0000
     18 C5          4.1400    2.9250   -0.1120 C.3       1 MAL1        0.0000
     19 H5          3.7210    3.5720    0.6950 H         1 MAL1        0.0000
     20 O5          3.7760    3.4680   -1.3880 O.3       1 MAL1        0.0000
     21 HO5         4.4510    4.1520   -1.5260 H         1 MAL1        0.0000
     22 C6          5.6610    2.9670   -0.0450 C.3       1 MAL1        0.0000
     23 H61         6.1010    2.3870   -0.8880 H         1 MAL1        0.0000
     24 H62         6.0290    2.5250    0.9080 H         1 MAL1        0.0000
     25 O6          6.1050    4.3310   -0.1090 O.3       1 MAL1        0.0000
     26 HO6         7.0370    4.3560    0.1500 H         1 MAL1        0.0000
@<TRIPOS>BOND
     1   21   20 1 
     2   20   18 1 
     3   13   12 1 
     4    7    6 1 
     5   23   22 1 
     6   15   14 1 
     7    3    1 1 
     8   12   10 1 
     9    4    1 1 
    10    4    5 1 
    11   18   22 1 
    12   18   14 1 
    13   18   19 1 
    14   25   22 1 
    15   25   26 1 
    16   22   24 1 
    17    1    6 1 
    18    1    2 1 
    19    6   10 1 
    20    6    8 1 
    21   14   10 1 
    22   14   16 1 
    23   10   11 1 
    24    8    9 1 
    25   16   17 1 
