@<TRIPOS>MOLECULE
C:\Users\Praveer\PycharmProjects\pdb_to_mol2_converter\data\pdb\mam1.pdb
    7     6     0     0     0
SMALL
GASTEIGER

@<TRIPOS>ATOM
      1 N1          1.3960    1.4690    0.1280 N.3       1 MAM1        0.0000
      2 C1          1.0490    0.0230    0.0090 C.3       1 MAM1        0.0000
      3 HN1         2.1460    1.6690    0.7860 H         1 MAM1        0.0000
      4 HN2         1.6730    1.9070   -0.7470 H         1 MAM1        0.0000
      5 HC1         0.7430   -0.3750    0.9780 H         1 MAM1        0.0000
      6 HC2         1.9030   -0.5540   -0.3470 H         1 MAM1        0.0000
      7 HC3         0.2230   -0.1130   -0.6870 H         1 MAM1        0.0000
@<TRIPOS>BOND
     1    4    1 1 
     2    7    2 1 
     3    6    2 1 
     4    2    1 1 
     5    2    5 1 
     6    1    3 1 
