@<TRIPOS>MOLECULE
C:\Users\Praveer\PycharmProjects\pdb_to_mol2_converter\data\pdb\mamm.pdb
    8     7     0     0     0
SMALL
GASTEIGER

@<TRIPOS>ATOM
      1 CE          1.1010    0.0010   -0.0000 C.3       1 MAM1        0.0000
      2 NZ          1.5570    1.4120   -0.0000 N.4       1 MAM1        0.0000
      3 HE1        -0.0090   -0.0230   -0.0010 H         1 MAM1        0.0000
      4 HE2         1.4890   -0.5060    0.9090 H         1 MAM1        0.0000
      5 HE3         1.4900   -0.5060   -0.9090 H         1 MAM1        0.0000
      6 HZ1         1.2000    1.9020    0.8470 H         1 MAM1        0.0000
      7 HZ2         1.2010    1.9010   -0.8480 H         1 MAM1        0.0000
      8 HZ3         2.5970    1.4510    0.0000 H         1 MAM1        0.0000
@<TRIPOS>BOND
     1    5    1 1 
     2    7    2 1 
     3    3    1 1 
     4    1    2 1 
     5    1    4 1 
     6    2    8 1 
     7    2    6 1 
