@<TRIPOS>MOLECULE
C:\Users\Praveer\PycharmProjects\pdb_to_mol2_converter\data\pdb\mas.pdb
   11    10     0     0     0
SMALL
GASTEIGER

@<TRIPOS>ATOM
      1 C1          0.0050    0.0050   -0.0030 C.3       1 MAS1        0.0000
      2 C           1.5120    0.0270   -0.0020 C.2       1 MAS1        0.0000
      3 OM          1.9320    1.2890   -0.0030 O.3       1 MAS1        0.0000
      4 C2          3.3660    1.3910   -0.0030 C.3       1 MAS1        0.0000
      5 O           2.2240   -0.9580   -0.0010 O.2       1 MAS1        0.0000
      6 H11        -0.3730    0.5200   -0.9090 H         1 MAS1        0.0000
      7 H12        -0.3740    0.5200    0.9030 H         1 MAS1        0.0000
      8 H13        -0.3400   -1.0490   -0.0030 H         1 MAS1        0.0000
      9 H21         3.7980    0.9070   -0.9080 H         1 MAS1        0.0000
     10 H22         3.7980    0.9070    0.9020 H         1 MAS1        0.0000
     11 H23         3.6680    2.4610   -0.0030 H         1 MAS1        0.0000
@<TRIPOS>BOND
     1    6    1 1 
     2    9    4 1 
     3    1    8 1 
     4    1    2 1 
     5    1    7 1 
     6    3    4 1 
     7    3    2 1 
     8    4   11 1 
     9    4   10 1 
    10    2    5 2 
