@<TRIPOS>MOLECULE
C:\Users\Praveer\PycharmProjects\pdb_to_mol2_converter\data\pdb\mboa.pdb
   18    18     0     0     0
SMALL
GASTEIGER

@<TRIPOS>ATOM
      1 C2          1.4510    0.0230    0.1390 C.ar      1 MBO1        0.0000
      2 H2          2.0160   -0.8910    0.2570 H         1 MBO1        0.0000
      3 C3          2.1110    1.2580    0.2250 C.ar      1 MBO1        0.0000
      4 H3          3.1760    1.2950    0.4060 H         1 MBO1        0.0000
      5 C4          1.3890    2.4490    0.0760 C.ar      1 MBO1        0.0000
      6 H4          1.8960    3.4020    0.1380 H         1 MBO1        0.0000
      7 C5          0.0090    2.4080   -0.1550 C.ar      1 MBO1        0.0000
      8 H5         -0.5510    3.3250   -0.2630 H         1 MBO1        0.0000
      9 C6         -0.6470    1.1760   -0.2410 C.ar      1 MBO1        0.0000
     10 H6         -1.7130    1.1540   -0.4160 H         1 MBO1        0.0000
     11 C1          0.0630   -0.0350   -0.1050 C.ar      1 MBO1        0.0000
     12 C7         -0.6330   -1.3730   -0.2080 C.2       1 MBO1        0.0000
     13 O7         -0.0780   -2.4340    0.0240 O.2       1 MBO1        0.0000
     14 O8         -1.9210   -1.2600   -0.5840 O.3       1 MBO1        0.0000
     15 C8         -2.6060   -2.5110   -0.6890 C.3       1 MBO1        0.0000
     16 H81        -2.6770   -2.9900    0.3130 H         1 MBO1        0.0000
     17 H82        -2.0730   -3.1960   -1.3900 H         1 MBO1        0.0000
     18 H83        -3.6390   -2.3340   -1.0720 H         1 MBO1        0.0000
@<TRIPOS>BOND
     1   17   15 1 
     2   18   15 1 
     3   15   14 1 
     4   15   16 1 
     5   14   12 1 
     6   10    9 1 
     7    8    7 1 
     8    9    7 ar
     9    9   11 ar
    10   12   11 1 
    11   12   13 2 
    12    7    5 ar
    13   11    1 ar
    14    5    6 1 
    15    5    3 ar
    16    1    3 ar
    17    1    2 1 
    18    3    4 1 
