@<TRIPOS>MOLECULE
C:\Users\Praveer\PycharmProjects\pdb_to_mol2_converter\data\pdb\mbsm.pdb
   20    20     0     0     0
SMALL
GASTEIGER

@<TRIPOS>ATOM
      1 CG         -0.0100   -0.0170   -0.0240 C.ar      1 MBS1        0.0000
      2 HG         -0.5510   -0.9530   -0.0270 H         1 MBS1        0.0000
      3 CD1         1.3870   -0.0180   -0.1080 C.ar      1 MBS1        0.0000
      4 HD1         1.9240   -0.9550   -0.1770 H         1 MBS1        0.0000
      5 CE1         2.0890    1.1930   -0.1100 C.ar      1 MBS1        0.0000
      6 HE1         3.1660    1.1830   -0.1890 H         1 MBS1        0.0000
      7 CD2        -0.7070    1.1940    0.0540 C.ar      1 MBS1        0.0000
      8 HD2        -1.7880    1.1920    0.1090 H         1 MBS1        0.0000
      9 CE2        -0.0060    2.4060    0.0560 C.ar      1 MBS1        0.0000
     10 HE2        -0.5550    3.3360    0.1130 H         1 MBS1        0.0000
     11 CZ          1.4020    2.4240   -0.0260 C.ar      1 MBS1        0.0000
     12 S1          2.3250    3.9450   -0.0040 S.O2      1 MBS1        0.0000
     13 O11         1.3560    5.0090   -0.0410 O.2       1 MBS1        0.0000
     14 O12         3.3210    3.7700   -1.0250 O.2       1 MBS1        0.0000
     15 N2          3.0590    3.8770    1.4720 N.3       1 MBS1        0.0000
     16 H21         3.7390    3.1210    1.5050 H         1 MBS1        0.0000
     17 C3          2.2130    4.0370    2.6730 C.3       1 MBS1        0.0000
     18 H31         1.5110    3.1840    2.7930 H         1 MBS1        0.0000
     19 H32         1.6210    4.9790    2.6160 H         1 MBS1        0.0000
     20 H33         2.8410    4.0980    3.5890 H         1 MBS1        0.0000
@<TRIPOS>BOND
     1   14   12 2 
     2    6    5 1 
     3    4    3 1 
     4    5    3 ar
     5    5   11 ar
     6    3    1 ar
     7   13   12 2 
     8    2    1 1 
     9   11   12 1 
    10   11    9 ar
    11    1    7 ar
    12   12   15 1 
    13    7    9 ar
    14    7    8 1 
    15    9   10 1 
    16   15   16 1 
    17   15   17 1 
    18   19   17 1 
    19   17   18 1 
    20   17   20 1 
