@<TRIPOS>MOLECULE
C:\Users\Praveer\PycharmProjects\pdb_to_mol2_converter\data\pdb\mbue.pdb
   18    17     0     0     0
SMALL
GASTEIGER

@<TRIPOS>ATOM
      1 C1         -0.5010   -1.3180    0.0040 C.3       1 MBU1        0.0000
      2 H11        -0.1720   -1.8670    0.9130 H         1 MBU1        0.0000
      3 H12        -0.1720   -1.8700   -0.9020 H         1 MBU1        0.0000
      4 H13        -1.6110   -1.2610    0.0040 H         1 MBU1        0.0000
      5 O2          0.0340   -0.0040    0.0020 O.3       1 MBU1        0.0000
      6 C3          1.4520   -0.0270    0.0010 C.3       1 MBU1        0.0000
      7 H31         1.8130   -0.5640   -0.9040 H         1 MBU1        0.0000
      8 H32         1.8140   -0.5640    0.9060 H         1 MBU1        0.0000
      9 C4          1.9980    1.4070    0.0000 C.3       1 MBU1        0.0000
     10 H41         1.6070    1.9370    0.8980 H         1 MBU1        0.0000
     11 H42         1.6070    1.9360   -0.8970 H         1 MBU1        0.0000
     12 C5          3.5320    1.4720    0.0010 C.3       1 MBU1        0.0000
     13 H51         3.9150    0.9360   -0.8980 H         1 MBU1        0.0000
     14 H52         3.9150    0.9360    0.8990 H         1 MBU1        0.0000
     15 C6          4.0760    2.9030    0.0010 C.3       1 MBU1        0.0000
     16 H61         3.7260    3.4510    0.9020 H         1 MBU1        0.0000
     17 H62         3.7260    3.4520   -0.9000 H         1 MBU1        0.0000
     18 H63         5.1870    2.9000    0.0010 H         1 MBU1        0.0000
@<TRIPOS>BOND
     1    7    6 1 
     2    3    1 1 
     3   17   15 1 
     4   13   12 1 
     5   11    9 1 
     6    9    6 1 
     7    9   12 1 
     8    9   10 1 
     9    6    5 1 
    10    6    8 1 
    11   12   15 1 
    12   12   14 1 
    13   15   18 1 
    14   15   16 1 
    15    5    1 1 
    16    1    4 1 
    17    1    2 1 
