@<TRIPOS>MOLECULE
C:\Users\Praveer\PycharmProjects\pdb_to_mol2_converter\data\pdb\mbut.pdb
   17    16     0     0     0
SMALL
GASTEIGER

@<TRIPOS>ATOM
      1 C4          1.6650    2.2890    1.2770 C.3       1 MBU1        0.0000
      2 H41         2.1230    3.3010    1.2460 H         1 MBU1        0.0000
      3 H42         2.0290    1.7670    2.1880 H         1 MBU1        0.0000
      4 H43         0.5630    2.4120    1.3580 H         1 MBU1        0.0000
      5 C3          2.0300    1.4990    0.0180 C.3       1 MBU1        0.0000
      6 H31         3.1410    1.4370   -0.0520 H         1 MBU1        0.0000
      7 H32         1.6720    2.0510   -0.8820 H         1 MBU1        0.0000
      8 C2          1.4580    0.0650   -0.0020 C.3       1 MBU1        0.0000
      9 H21         1.7520   -0.4710    0.9240 H         1 MBU1        0.0000
     10 H22         1.8630   -0.4890   -0.8740 H         1 MBU1        0.0000
     11 C1         -0.0670    0.0360   -0.1130 C.2       1 MBU1        0.0000
     12 O1         -0.7880    0.9790   -0.3780 O.2       1 MBU1        0.0000
     13 OM         -0.4870   -1.2130    0.1050 O.3       1 MBU1        0.0000
     14 CM         -1.9160   -1.3370   -0.0000 C.3       1 MBU1        0.0000
     15 HM1        -2.2740   -0.9960   -0.9980 H         1 MBU1        0.0000
     16 HM2        -2.4220   -0.7340    0.7870 H         1 MBU1        0.0000
     17 HM3        -2.2130   -2.4010    0.1290 H         1 MBU1        0.0000
@<TRIPOS>BOND
     1   15   14 1 
     2    7    5 1 
     3   10    8 1 
     4   12   11 2 
     5   11    8 1 
     6   11   13 1 
     7    6    5 1 
     8    8    5 1 
     9    8    9 1 
    10   14   13 1 
    11   14   17 1 
    12   14   16 1 
    13    5    1 1 
    14    2    1 1 
    15    1    4 1 
    16    1    3 1 
