@<TRIPOS>MOLECULE
C:\Users\Praveer\PycharmProjects\pdb_to_mol2_converter\data\pdb\mcpe.pdb
   18    18     0     0     0
SMALL
GASTEIGER

@<TRIPOS>ATOM
      1 C1         -0.0290    0.1920    0.0820 C.3       1 MCP1        0.0000
      2 H11        -0.3250    0.1050    1.1410 H         1 MCP1        0.0000
      3 H12        -0.5920   -0.5770   -0.4630 H         1 MCP1        0.0000
      4 C2          1.4960    0.0240   -0.0440 C.3       1 MCP1        0.0000
      5 H21         1.7510   -0.4940   -0.9820 H         1 MCP1        0.0000
      6 H22         1.9050   -0.5910    0.7710 H         1 MCP1        0.0000
      7 C3          2.0800    1.4500   -0.0520 C.3       1 MCP1        0.0000
      8 H31         2.5920    1.6400   -1.0090 H         1 MCP1        0.0000
      9 H32         2.8310    1.6020    0.7360 H         1 MCP1        0.0000
     10 C4          0.8780    2.3980    0.1080 C.3       1 MCP1        0.0000
     11 H41         1.0170    3.3570   -0.4070 H         1 MCP1        0.0000
     12 H42         0.7300    2.6320    1.1750 H         1 MCP1        0.0000
     13 C5         -0.3190    1.6070   -0.4110 C.3       1 MCP1        0.0000
     14 H51        -0.2830    1.6050   -1.5180 H         1 MCP1        0.0000
     15 C6         -1.6740    2.1600    0.0300 C.3       1 MCP1        0.0000
     16 H61        -1.7430    2.1750    1.1390 H         1 MCP1        0.0000
     17 H62        -2.4980    1.5280   -0.3660 H         1 MCP1        0.0000
     18 H63        -1.8100    3.1960   -0.3450 H         1 MCP1        0.0000
@<TRIPOS>BOND
     1   14   13 1 
     2    8    7 1 
     3    5    4 1 
     4    3    1 1 
     5   13   15 1 
     6   13    1 1 
     7   13   10 1 
     8   11   10 1 
     9   17   15 1 
    10   18   15 1 
    11    7    4 1 
    12    7   10 1 
    13    7    9 1 
    14    4    1 1 
    15    4    6 1 
    16   15   16 1 
    17    1    2 1 
    18   10   12 1 
