@<TRIPOS>MOLECULE
C:\Users\Praveer\PycharmProjects\pdb_to_mol2_converter\data\pdb\mdmp.pdb
   21    21     0     0     0
SMALL
GASTEIGER

@<TRIPOS>ATOM
      1 C5          1.3340   -0.2040   -0.0650 C.ar      1 MDM1        0.0000
      2 C4          2.1380    0.8510   -0.6560 C.ar      1 MDM1        0.0000
      3 O4          3.3680    0.8080   -0.7450 O.2       1 MDM1        0.0000
      4 N3          1.4700    1.9960   -1.1020 N.ar      1 MDM1        0.0000
      5 C2          0.0850    2.1300   -1.0410 C.ar      1 MDM1        0.0000
      6 O2         -0.4810    3.1500   -1.4420 O.2       1 MDM1        0.0000
      7 N1         -0.6570    1.0490   -0.5230 N.ar      1 MDM1        0.0000
      8 C6         -0.0270   -0.0680   -0.0670 C.ar      1 MDM1        0.0000
      9 H6         -0.6610   -0.8840    0.2930 H         1 MDM1        0.0000
     10 C1         -2.1260    1.1710   -0.4730 C.3       1 MDM1        0.0000
     11 H11        -2.5470    1.4440   -1.4700 H         1 MDM1        0.0000
     12 H12        -2.4390    1.9680    0.2430 H         1 MDM1        0.0000
     13 H13        -2.6230    0.2270   -0.1550 H         1 MDM1        0.0000
     14 C3          2.2870    3.1090   -1.6500 C.3       1 MDM1        0.0000
     15 H31         3.0190    2.7460   -2.4080 H         1 MDM1        0.0000
     16 H32         2.8740    3.6030   -0.8410 H         1 MDM1        0.0000
     17 H33         1.6850    3.9030   -2.1490 H         1 MDM1        0.0000
     18 CM          1.9660   -1.4960    0.3700 C.3       1 MDM1        0.0000
     19 HM1         3.0270   -1.3460    0.6740 H         1 MDM1        0.0000
     20 HM2         1.9560   -2.2400   -0.4570 H         1 MDM1        0.0000
     21 HM3         1.4320   -1.9390    1.2400 H         1 MDM1        0.0000
@<TRIPOS>BOND
     1   15   14 1 
     2   17   14 1 
     3   14    4 1 
     4   14   16 1 
     5   11   10 1 
     6    6    5 2 
     7    4    5 ar
     8    4    2 ar
     9    5    7 ar
    10    3    2 2 
    11    2    1 ar
    12    7   10 1 
    13    7    8 ar
    14   10   13 1 
    15   10   12 1 
    16   20   18 1 
    17    8    1 ar
    18    8    9 1 
    19    1   18 1 
    20   18   19 1 
    21   18   21 1 
