@<TRIPOS>MOLECULE
C:\Users\Praveer\PycharmProjects\pdb_to_mol2_converter\data\pdb\mea.pdb
   55    54     0     0     0
SMALL
GASTEIGER

@<TRIPOS>ATOM
      1 O1         -0.0830    0.2350   -0.1520 O.co2     1 MEA1        0.0000
      2 O2          1.7800   -0.9820   -0.1500 O.co2     1 MEA1        0.0000
      3 C1          1.1690    0.1160   -0.1090 C.2       1 MEA1        0.0000
      4 C2          2.0010    1.3890    0.0210 C.3       1 MEA1        0.0000
      5 H2R         2.6190    1.2870    0.9360 H         1 MEA1        0.0000
      6 H2S         1.3070    2.2450    0.1430 H         1 MEA1        0.0000
      7 C3          2.9030    1.6100   -1.2130 C.3       1 MEA1        0.0000
      8 H3R         2.2590    1.7020   -2.1170 H         1 MEA1        0.0000
      9 H3S         3.5420    0.7070   -1.3450 H         1 MEA1        0.0000
     10 C4          3.7890    2.8590   -1.0630 C.3       1 MEA1        0.0000
     11 H4R         4.3970    2.7360   -0.1390 H         1 MEA1        0.0000
     12 H4S         3.1180    3.7320   -0.8970 H         1 MEA1        0.0000
     13 C5          4.6950    3.0510   -2.2540 C.2       1 MEA1        0.0000
     14 H5R         5.2550    2.1520   -2.5540 H         1 MEA1        0.0000
     15 C6          4.8410    4.1820   -2.9680 C.2       1 MEA1        0.0000
     16 H6R         5.5450    4.1800   -3.8160 H         1 MEA1        0.0000
     17 C7          4.1340    5.4860   -2.6840 C.3       1 MEA1        0.0000
     18 H7R         4.3400    5.7910   -1.6340 H         1 MEA1        0.0000
     19 H7S         3.0340    5.3230   -2.7380 H         1 MEA1        0.0000
     20 C8          4.5100    6.5770   -3.6590 C.2       1 MEA1        0.0000
     21 H8R         4.3990    6.3070   -4.7210 H         1 MEA1        0.0000
     22 C9          4.9560    7.8110   -3.3510 C.2       1 MEA1        0.0000
     23 H9R         5.1970    8.4990   -4.1770 H         1 MEA1        0.0000
     24 C10         5.1500    8.3550   -1.9550 C.3       1 MEA1        0.0000
     25 H10R        6.0840    7.9250   -1.5310 H         1 MEA1        0.0000
     26 H10S        4.3260    8.0000   -1.2970 H         1 MEA1        0.0000
     27 C11         5.2600    9.8620   -1.9290 C.2       1 MEA1        0.0000
     28 H11R        5.9610   10.2890   -2.6630 H         1 MEA1        0.0000
     29 C12         4.5880   10.7080   -1.1240 C.2       1 MEA1        0.0000
     30 H12R        4.7670   11.7890   -1.2270 H         1 MEA1        0.0000
     31 C13         3.6010   10.3360   -0.0450 C.3       1 MEA1        0.0000
     32 H13R        3.7530    9.2940    0.3170 H         1 MEA1        0.0000
     33 H13S        2.5640   10.3970   -0.4440 H         1 MEA1        0.0000
     34 C14         3.7040   11.2780    1.1690 C.3       1 MEA1        0.0000
     35 H14R        3.5280   12.3280    0.8410 H         1 MEA1        0.0000
     36 H14S        4.7270   11.2240    1.6060 H         1 MEA1        0.0000
     37 C15         2.6800   10.9360    2.2600 C.3       1 MEA1        0.0000
     38 H15R        2.8860    9.9150    2.6520 H         1 MEA1        0.0000
     39 H15S        1.6610   10.9280    1.8110 H         1 MEA1        0.0000
     40 C16         2.7030   11.9430    3.4180 C.3       1 MEA1        0.0000
     41 H16R        2.5020   12.9600    3.0130 H         1 MEA1        0.0000
     42 H16S        3.7170   11.9550    3.8760 H         1 MEA1        0.0000
     43 C17         1.6630   11.6260    4.5000 C.3       1 MEA1        0.0000
     44 H17R        1.8880   10.6310    4.9450 H         1 MEA1        0.0000
     45 H17S        0.6550   11.5680    4.0310 H         1 MEA1        0.0000
     46 C18         1.6350   12.6850    5.6090 C.3       1 MEA1        0.0000
     47 H18R        1.4060   13.6770    5.1570 H         1 MEA1        0.0000
     48 H18S        2.6440   12.7530    6.0760 H         1 MEA1        0.0000
     49 C19         0.5970   12.3790    6.6950 C.3       1 MEA1        0.0000
     50 H19R        0.8410   11.3950    7.1560 H         1 MEA1        0.0000
     51 H19S       -0.4040   12.2840    6.2160 H         1 MEA1        0.0000
     52 C20         0.5330   13.4490    7.7880 C.3       1 MEA1        0.0000
     53 H20R        0.2570   14.4330    7.3510 H         1 MEA1        0.0000
     54 H20S        1.5190   13.5520    8.2890 H         1 MEA1        0.0000
     55 H20T       -0.2260   13.1800    8.5540 H         1 MEA1        0.0000
@<TRIPOS>BOND
     1   21   20 1 
     2   23   22 1 
     3   16   15 1 
     4   20   22 2 
     5   20   17 1 
     6   22   24 1 
     7   15   17 1 
     8   15   13 2 
     9   19   17 1 
    10   17   18 1 
    11   28   27 1 
    12   14   13 1 
    13   13   10 1 
    14    8    7 1 
    15   24   27 1 
    16   24   25 1 
    17   24   26 1 
    18   27   29 2 
    19    9    7 1 
    20   30   29 1 
    21    7   10 1 
    22    7    4 1 
    23   29   31 1 
    24   10   12 1 
    25   10   11 1 
    26   33   31 1 
    27    1    3 ar
    28    2    3 ar
    29    3    4 1 
    30   31   32 1 
    31   31   34 1 
    32    4    6 1 
    33    4    5 1 
    34   35   34 1 
    35   34   36 1 
    36   34   37 1 
    37   39   37 1 
    38   37   38 1 
    39   37   40 1 
    40   41   40 1 
    41   40   42 1 
    42   40   43 1 
    43   45   43 1 
    44   43   44 1 
    45   43   46 1 
    46   47   46 1 
    47   46   48 1 
    48   46   49 1 
    49   51   49 1 
    50   49   50 1 
    51   49   52 1 
    52   53   52 1 
    53   52   54 1 
    54   52   55 1 
