@<TRIPOS>MOLECULE
C:\Users\Praveer\PycharmProjects\pdb_to_mol2_converter\data\pdb\meap.pdb
   56    55     0     0     0
SMALL
GASTEIGER

@<TRIPOS>ATOM
      1 H1          0.1760   -0.2000    0.2000 H         1 MEA1        0.0000
      2 O1          1.1230   -0.1110    0.1030 O.3       1 MEA1        0.0000
      3 O2          0.5060    2.0490    0.1490 O.2       1 MEA1        0.0000
      4 C1          1.4070    1.2360    0.0710 C.2       1 MEA1        0.0000
      5 C2          2.8960    1.5410   -0.0670 C.3       1 MEA1        0.0000
      6 H2R         3.0190    2.2000   -0.9520 H         1 MEA1        0.0000
      7 H2S         3.4610    0.6030   -0.2440 H         1 MEA1        0.0000
      8 C3          3.4370    2.2590    1.1890 C.3       1 MEA1        0.0000
      9 H3R         3.3660    1.5760    2.0670 H         1 MEA1        0.0000
     10 H3S         2.8020    3.1530    1.3970 H         1 MEA1        0.0000
     11 C4          4.8960    2.7180    1.0060 C.3       1 MEA1        0.0000
     12 H4R         4.9430    3.3780    0.1100 H         1 MEA1        0.0000
     13 H4S         5.5170    1.8220    0.7780 H         1 MEA1        0.0000
     14 C5          5.4080    3.4680    2.2120 C.2       1 MEA1        0.0000
     15 H5R         4.7620    4.2910    2.5560 H         1 MEA1        0.0000
     16 C6          6.5470    3.2120    2.8830 C.2       1 MEA1        0.0000
     17 H6R         6.7990    3.8470    3.7490 H         1 MEA1        0.0000
     18 C7          7.5400    2.1280    2.5370 C.3       1 MEA1        0.0000
     19 H7R         7.8800    2.2660    1.4860 H         1 MEA1        0.0000
     20 H7S         7.0300    1.1390    2.5610 H         1 MEA1        0.0000
     21 C8          8.7150    2.0870    3.4890 C.2       1 MEA1        0.0000
     22 H8R         8.4450    1.9650    4.5500 H         1 MEA1        0.0000
     23 C9         10.0200    2.1830    3.1640 C.2       1 MEA1        0.0000
     24 H9R        10.7630    2.1440    3.9770 H         1 MEA1        0.0000
     25 C10        10.5720    2.3410    1.7650 C.3       1 MEA1        0.0000
     26 H10R       10.3600    3.3750    1.4150 H         1 MEA1        0.0000
     27 H10S       10.0240    1.6660    1.0710 H         1 MEA1        0.0000
     28 C11        12.0640    2.1070    1.6870 C.2       1 MEA1        0.0000
     29 H11R       12.6600    2.6740    2.4200 H         1 MEA1        0.0000
     30 C12        12.7140    1.2910    0.8340 C.2       1 MEA1        0.0000
     31 H12R       13.8110    1.2230    0.9020 H         1 MEA1        0.0000
     32 C13        12.1020    0.4460   -0.2560 C.3       1 MEA1        0.0000
     33 H13R       11.1410    0.8750   -0.6190 H         1 MEA1        0.0000
     34 H13S       11.8810   -0.5730    0.1330 H         1 MEA1        0.0000
     35 C14        13.0470    0.3010   -1.4640 C.3       1 MEA1        0.0000
     36 H14R       14.0000   -0.1720   -1.1340 H         1 MEA1        0.0000
     37 H14S       13.2910    1.3060   -1.8790 H         1 MEA1        0.0000
     38 C15        12.4430   -0.5600   -2.5840 C.3       1 MEA1        0.0000
     39 H15R       11.5290   -0.0620   -2.9780 H         1 MEA1        0.0000
     40 H15S       12.1370   -1.5430   -2.1610 H         1 MEA1        0.0000
     41 C16        13.4280   -0.8010   -3.7350 C.3       1 MEA1        0.0000
     42 H16R       14.3390   -1.3000   -3.3330 H         1 MEA1        0.0000
     43 H16S       13.7400    0.1770   -4.1660 H         1 MEA1        0.0000
     44 C17        12.8320   -1.6760   -4.8460 C.3       1 MEA1        0.0000
     45 H17R       11.9480   -1.1600   -5.2850 H         1 MEA1        0.0000
     46 H17S       12.4800   -2.6350   -4.4040 H         1 MEA1        0.0000
     47 C18        13.8440   -1.9840   -5.9570 C.3       1 MEA1        0.0000
     48 H18R       14.7230   -2.5040   -5.5140 H         1 MEA1        0.0000
     49 H18S       14.2040   -1.0280   -6.4000 H         1 MEA1        0.0000
     50 C19        13.2500   -2.8610   -7.0660 C.3       1 MEA1        0.0000
     51 H19R       12.3790   -2.3300   -7.5150 H         1 MEA1        0.0000
     52 H19S       12.8680   -3.8030   -6.6110 H         1 MEA1        0.0000
     53 C20        14.2550   -3.2050   -8.1680 C.3       1 MEA1        0.0000
     54 H20R       15.1220   -3.7570   -7.7430 H         1 MEA1        0.0000
     55 H20S       14.6330   -2.2780   -8.6520 H         1 MEA1        0.0000
     56 H20T       13.7800   -3.8410   -8.9450 H         1 MEA1        0.0000
@<TRIPOS>BOND
     1   56   53 1 
     2   55   53 1 
     3   53   54 1 
     4   53   50 1 
     5   51   50 1 
     6   50   52 1 
     7   50   47 1 
     8   49   47 1 
     9   47   48 1 
    10   47   44 1 
    11   45   44 1 
    12   44   46 1 
    13   44   41 1 
    14   43   41 1 
    15   41   42 1 
    16   41   38 1 
    17   39   38 1 
    18   38   40 1 
    19   38   35 1 
    20   37   35 1 
    21   35   36 1 
    22   35   32 1 
    23    6    5 1 
    24   33   32 1 
    25   32   34 1 
    26   32   30 1 
    27    7    5 1 
    28    5    4 1 
    29    5    8 1 
    30    4    2 1 
    31    4    3 2 
    32    2    1 1 
    33   12   11 1 
    34   13   11 1 
    35   30   31 1 
    36   30   28 2 
    37   11    8 1 
    38   11   14 1 
    39   27   25 1 
    40    8   10 1 
    41    8    9 1 
    42   26   25 1 
    43   19   18 1 
    44   28   25 1 
    45   28   29 1 
    46   25   23 1 
    47   14   15 1 
    48   14   16 2 
    49   18   20 1 
    50   18   16 1 
    51   18   21 1 
    52   16   17 1 
    53   23   21 2 
    54   23   24 1 
    55   21   22 1 
