@<TRIPOS>MOLECULE
C:\Users\Praveer\PycharmProjects\pdb_to_mol2_converter\data\pdb\mebz.pdb
   21    21     0     0     0
SMALL
GASTEIGER

@<TRIPOS>ATOM
      1 C1          1.3830    0.0160   -0.1140 C.ar      1 MEB1        0.0000
      2 H1          1.9060   -0.9250   -0.2070 H         1 MEB1        0.0000
      3 C2          2.1050    1.2120   -0.0070 C.ar      1 MEB1        0.0000
      4 H2          3.1850    1.1940   -0.0160 H         1 MEB1        0.0000
      5 C3          1.4260    2.4320    0.1080 C.ar      1 MEB1        0.0000
      6 H3          1.9830    3.3550    0.1850 H         1 MEB1        0.0000
      7 C4          0.0250    2.4550    0.1200 C.ar      1 MEB1        0.0000
      8 H4         -0.4980    3.3970    0.2000 H         1 MEB1        0.0000
      9 C6         -0.0180    0.0400   -0.1010 C.ar      1 MEB1        0.0000
     10 H6         -0.5740   -0.8820   -0.1890 H         1 MEB1        0.0000
     11 C5         -0.7030    1.2590    0.0230 C.ar      1 MEB1        0.0000
     12 C7         -2.2040    1.2820    0.0270 C.3       1 MEB1        0.0000
     13 H71        -2.5660    2.1670    0.5900 H         1 MEB1        0.0000
     14 H73        -2.5870    0.3580    0.5090 H         1 MEB1        0.0000
     15 C8         -2.7080    1.3360   -1.3990 C.2       1 MEB1        0.0000
     16 O8         -3.1190    0.3760   -2.0250 O.2       1 MEB1        0.0000
     17 O9         -2.6690    2.5910   -1.8520 O.3       1 MEB1        0.0000
     18 C9         -3.1350    2.7020   -3.2080 C.3       1 MEB1        0.0000
     19 H91        -4.1950    2.3720   -3.2920 H         1 MEB1        0.0000
     20 H92        -2.5110    2.0830   -3.8920 H         1 MEB1        0.0000
     21 H93        -3.0710    3.7600   -3.5430 H         1 MEB1        0.0000
@<TRIPOS>BOND
     1   20   18 1 
     2   21   18 1 
     3   19   18 1 
     4   18   17 1 
     5   16   15 2 
     6   17   15 1 
     7   15   12 1 
     8    2    1 1 
     9   10    9 1 
    10    1    9 ar
    11    1    3 ar
    12    9   11 ar
    13    4    3 1 
    14    3    5 ar
    15   11   12 1 
    16   11    7 ar
    17   12   14 1 
    18   12   13 1 
    19    5    7 ar
    20    5    6 1 
    21    7    8 1 
