@<TRIPOS>MOLECULE
C:\Users\Praveer\PycharmProjects\pdb_to_mol2_converter\data\pdb\mech.pdb
   29    29     0     0     0
SMALL
GASTEIGER

@<TRIPOS>ATOM
      1 C1         -0.0340    0.0800    0.0860 C.3       1 MEC1        0.0000
      2 C2          1.5120   -0.0060    0.0150 C.3       1 MEC1        0.0000
      3 H21         1.8050   -0.6190   -0.8640 H         1 MEC1        0.0000
      4 H22         1.8810   -0.5260    0.9280 H         1 MEC1        0.0000
      5 C3          2.1690    1.3720   -0.0530 C.3       1 MEC1        0.0000
      6 H31         1.8180    1.9170   -0.9570 H         1 MEC1        0.0000
      7 H32         3.2740    1.2710   -0.1250 H         1 MEC1        0.0000
      8 C4          1.8000    2.1590    1.2090 C.3       1 MEC1        0.0000
      9 H41         2.1420    3.2100    1.0800 H         1 MEC1        0.0000
     10 H42         2.3700    1.7350    2.0650 H         1 MEC1        0.0000
     11 C5          0.3280    2.1280    1.5440 C.2       1 MEC1        0.0000
     12 C6         -0.5210    1.1770    1.0440 C.2       1 MEC1        0.0000
     13 C7         -1.9690    1.1420    1.4130 C.2       1 MEC1        0.0000
     14 H71        -2.3510    0.1880    1.8080 H         1 MEC1        0.0000
     15 C8         -2.8750    2.1160    1.1860 C.2       1 MEC1        0.0000
     16 H81        -2.5670    3.0740    0.7360 H         1 MEC1        0.0000
     17 H82        -3.9370    1.9770    1.4410 H         1 MEC1        0.0000
     18 C16        -0.5880    0.4020   -1.3220 C.3       1 MEC1        0.0000
     19 H161       -0.2260   -0.3490   -2.0530 H         1 MEC1        0.0000
     20 H162       -0.2610    1.4060   -1.6620 H         1 MEC1        0.0000
     21 H163       -1.6980    0.3750   -1.3260 H         1 MEC1        0.0000
     22 C17        -0.5420   -1.3210    0.4990 C.3       1 MEC1        0.0000
     23 H171       -0.2380   -1.5580    1.5400 H         1 MEC1        0.0000
     24 H172       -0.1070   -2.0900   -0.1730 H         1 MEC1        0.0000
     25 H173       -1.6460   -1.3910    0.4190 H         1 MEC1        0.0000
     26 C18        -0.0710    3.1950    2.5400 C.3       1 MEC1        0.0000
     27 H181       -0.0540    4.1980    2.0630 H         1 MEC1        0.0000
     28 H182        0.6490    3.2170    3.3860 H         1 MEC1        0.0000
     29 H183       -1.0770    3.0510    2.9870 H         1 MEC1        0.0000
@<TRIPOS>BOND
     1   19   18 1 
     2   20   18 1 
     3   21   18 1 
     4   18    1 1 
     5    6    5 1 
     6    3    2 1 
     7   24   22 1 
     8    7    5 1 
     9    5    2 1 
    10    5    8 1 
    11    2    1 1 
    12    2    4 1 
    13    1   22 1 
    14    1   12 1 
    15   25   22 1 
    16   22   23 1 
    17   16   15 1 
    18   12   13 1 
    19   12   11 2 
    20    9    8 1 
    21   15   13 2 
    22   15   17 1 
    23    8   11 1 
    24    8   10 1 
    25   13   14 1 
    26   11   26 1 
    27   27   26 1 
    28   26   29 1 
    29   26   28 1 
