@<TRIPOS>MOLECULE
C:\Users\Praveer\PycharmProjects\pdb_to_mol2_converter\data\pdb\meob.pdb
   16    16     0     0     0
SMALL
GASTEIGER

@<TRIPOS>ATOM
      1 CG          0.0000   -0.0050   -0.0000 C.ar      1 MEO1        0.0000
      2 HG         -0.5400   -0.9410   -0.0000 H         1 MEO1        0.0000
      3 CD1         1.4000   -0.0060   -0.0010 C.ar      1 MEO1        0.0000
      4 HD1         1.9420   -0.9410   -0.0010 H         1 MEO1        0.0000
      5 CD2        -0.7000    1.2070    0.0000 C.ar      1 MEO1        0.0000
      6 HD2        -1.7810    1.2050    0.0000 H         1 MEO1        0.0000
      7 CE1         2.0960    1.2100   -0.0000 C.ar      1 MEO1        0.0000
      8 HE1         3.1760    1.2180   -0.0010 H         1 MEO1        0.0000
      9 CE2        -0.0010    2.4240    0.0010 C.ar      1 MEO1        0.0000
     10 HE2        -0.5750    3.3350    0.0010 H         1 MEO1        0.0000
     11 CZ          1.4120    2.4330    0.0000 C.ar      1 MEO1        0.0000
     12 OZ          2.1790    3.6190    0.0010 O.3       1 MEO1        0.0000
     13 CM          1.4750    4.8590    0.0040 C.3       1 MEO1        0.0000
     14 HM1         0.8460    4.9560    0.9170 H         1 MEO1        0.0000
     15 HM2         0.8440    4.9600   -0.9060 H         1 MEO1        0.0000
     16 HM3         2.2140    5.6890    0.0050 H         1 MEO1        0.0000
@<TRIPOS>BOND
     1   15   13 1 
     2    3    4 1 
     3    3    1 ar
     4    3    7 ar
     5    8    7 1 
     6    1    2 1 
     7    1    5 ar
     8    5    6 1 
     9    5    9 ar
    10    7   11 ar
    11   11    9 ar
    12   11   12 1 
    13    9   10 1 
    14   12   13 1 
    15   13   16 1 
    16   13   14 1 
