@<TRIPOS>MOLECULE
C:\Users\Praveer\PycharmProjects\pdb_to_mol2_converter\data\pdb\meoh.pdb
    6     5     0     0     0
SMALL
GASTEIGER

@<TRIPOS>ATOM
      1 CB          1.3510    1.3650    0.0090 C.3       1 MEO1        0.0000
      2 OG          0.9630   -0.0070    0.0050 O.3       1 MEO1        0.0000
      3 HG1         1.3200   -0.4200    0.7970 H         1 MEO1        0.0000
      4 HB1         0.9470    1.8820    0.9070 H         1 MEO1        0.0000
      5 HB2         0.9490    1.8670   -0.8990 H         1 MEO1        0.0000
      6 HB3         2.4600    1.4560    0.0010 H         1 MEO1        0.0000
@<TRIPOS>BOND
     1    5    1 1 
     2    6    1 1 
     3    2    1 1 
     4    2    3 1 
     5    1    4 1 
