@<TRIPOS>MOLECULE
C:\Users\Praveer\PycharmProjects\pdb_to_mol2_converter\data\pdb\meoi.pdb
   18    19     0     0     0
SMALL
GASTEIGER

@<TRIPOS>ATOM
      1 C5         -0.8600   -1.1170   -0.0000 C.2       1 MEO1        0.0000
      2 H51        -1.9490   -0.9330   -0.0000 H         1 MEO1        0.0000
      3 H52        -0.5090   -2.1590   -0.0000 H         1 MEO1        0.0000
      4 C6          0.0160   -0.0790   -0.0000 C.2       1 MEO1        0.0000
      5 C7         -0.4060    1.3550   -0.0000 C.2       1 MEO1        0.0000
      6 O7         -1.5580    1.7930    0.0000 O.2       1 MEO1        0.0000
      7 N8          0.7190    2.1300   -0.0000 N.am      1 MEO1        0.0000
      8 H8          0.6840    3.1320    0.0000 H         1 MEO1        0.0000
      9 C9          1.8590    1.3420   -0.0000 C.ar      1 MEO1        0.0000
     10 C10         3.2020    1.6730   -0.0000 C.ar      1 MEO1        0.0000
     11 H10         3.4910    2.7120   -0.0000 H         1 MEO1        0.0000
     12 C11         4.1740    0.6610   -0.0000 C.ar      1 MEO1        0.0000
     13 H11         5.2270    0.9160   -0.0000 H         1 MEO1        0.0000
     14 C12         3.7870   -0.6850   -0.0000 C.ar      1 MEO1        0.0000
     15 H12         4.5460   -1.4590   -0.0000 H         1 MEO1        0.0000
     16 C13         2.4310   -1.0340   -0.0000 C.ar      1 MEO1        0.0000
     17 H13         2.1160   -2.0670   -0.0000 H         1 MEO1        0.0000
     18 C14         1.4830   -0.0190   -0.0000 C.ar      1 MEO1        0.0000
@<TRIPOS>BOND
     1    1    2 1 
     2    1    3 1 
     3    1    4 2 
     4    4    5 1 
     5    4   18 1 
     6    5    6 2 
     7    5    7 am
     8    7    8 1 
     9    7    9 1 
    10    9   10 ar
    11    9   18 ar
    12   10   11 1 
    13   10   12 ar
    14   12   13 1 
    15   12   14 ar
    16   14   15 1 
    17   14   16 ar
    18   16   17 1 
    19   16   18 ar
