@<TRIPOS>MOLECULE
C:\Users\Praveer\PycharmProjects\pdb_to_mol2_converter\data\pdb\meryol.pdb
   18    17     0     0     0
SMALL
GASTEIGER

@<TRIPOS>ATOM
      1 C1          0.1060    0.0210   -0.0580 C.3       1 MER1        0.0000
      2 H11        -0.2600    0.3490   -1.0570 H         1 MER1        0.0000
      3 H12        -0.2430   -1.0250    0.0970 H         1 MER1        0.0000
      4 O1         -0.4690    0.8690    0.9420 O.3       1 MER1        0.0000
      5 HO1        -0.1360    0.5220    1.7800 H         1 MER1        0.0000
      6 C2          1.6230    0.0880   -0.0110 C.3       1 MER1        0.0000
      7 H2          2.0210   -0.4620   -0.8950 H         1 MER1        0.0000
      8 O2          2.0640   -0.5630    1.1920 O.3       1 MER1        0.0000
      9 HO2         2.7510   -1.1850    0.9290 H         1 MER1        0.0000
     10 C3          2.1500    1.5150   -0.0020 C.3       1 MER1        0.0000
     11 H3          1.9190    1.9880    0.9840 H         1 MER1        0.0000
     12 O3          1.4930    2.2870   -1.0190 O.3       1 MER1        0.0000
     13 HO3         0.6310    2.5080   -0.6400 H         1 MER1        0.0000
     14 C4          3.6510    1.5890   -0.2090 C.3       1 MER1        0.0000
     15 H41         4.1810    1.0270    0.5930 H         1 MER1        0.0000
     16 H42         3.9880    2.6490   -0.1610 H         1 MER1        0.0000
     17 O4          4.0140    1.0430   -1.4800 O.3       1 MER1        0.0000
     18 HO4         3.4490    1.5150   -2.1060 H         1 MER1        0.0000
@<TRIPOS>BOND
     1   18   17 1 
     2   17   14 1 
     3    2    1 1 
     4   12   13 1 
     5   12   10 1 
     6    7    6 1 
     7   14   16 1 
     8   14   10 1 
     9   14   15 1 
    10    1    6 1 
    11    1    3 1 
    12    1    4 1 
    13    6   10 1 
    14    6    8 1 
    15   10   11 1 
    16    9    8 1 
    17    4    5 1 
