@<TRIPOS>MOLECULE
C:\Users\Praveer\PycharmProjects\pdb_to_mol2_converter\data\pdb\mes1.pdb
    5     4     0     0     0
SMALL
GASTEIGER

@<TRIPOS>ATOM
      1 S           1.8080    1.6990    0.0000 S.3       1 MES1        0.0000
      2 C1          1.1110    0.0000    0.0000 C.3       1 MES1        0.0000
      3 H11         0.0000    0.0000    0.0000 H         1 MES1        0.0000
      4 H12         1.4620   -0.5270    0.9130 H         1 MES1        0.0000
      5 H13         1.4620   -0.5270   -0.9130 H         1 MES1        0.0000
@<TRIPOS>BOND
     1    5    2 1 
     2    1    2 1 
     3    2    3 1 
     4    2    4 1 
