@<TRIPOS>MOLECULE
C:\Users\Praveer\PycharmProjects\pdb_to_mol2_converter\data\pdb\mesi.pdb
   18    17     0     0     0
SMALL
GASTEIGER

@<TRIPOS>ATOM
      1 C1         -0.0300    0.0140    0.0590 C.3       1 MES1        0.0000
      2 N2          1.4330    0.0690   -0.1540 N.3       1 MES1        0.0000
      3 H2          2.0120   -0.6840    0.1950 H         1 MES1        0.0000
      4 H11        -0.4010   -1.0320   -0.0110 H         1 MES1        0.0000
      5 H13        -0.5540    0.6120   -0.7210 H         1 MES1        0.0000
      6 H12        -0.3190    0.4180    1.0530 H         1 MES1        0.0000
      7 S3          2.1850    1.4980   -0.0330 S.O2      1 MES1        0.0000
      8 N4          1.8600    1.8610    1.5070 N.3       1 MES1        0.0000
      9 H4          2.5730    1.3420    2.0030 H         1 MES1        0.0000
     10 C5          2.0100    3.2840    1.8930 C.3       1 MES1        0.0000
     11 C6          3.4820    3.7020    1.9320 C.3       1 MES1        0.0000
     12 H61         3.9120    3.7160    0.9060 H         1 MES1        0.0000
     13 H62         4.0850    3.0050    2.5520 H         1 MES1        0.0000
     14 H63         3.5800    4.7240    2.3550 H         1 MES1        0.0000
     15 H51         1.5660    3.4260    2.9070 H         1 MES1        0.0000
     16 H52         1.4440    3.9420    1.1960 H         1 MES1        0.0000
     17 O31         1.5400    2.4430   -0.8990 O.2       1 MES1        0.0000
     18 O32         3.5930    1.2370   -0.1040 O.2       1 MES1        0.0000
@<TRIPOS>BOND
     1   17    7 2 
     2    5    1 1 
     3    2    7 1 
     4    2    1 1 
     5    2    3 1 
     6   18    7 2 
     7    7    8 1 
     8    4    1 1 
     9    1    6 1 
    10   12   11 1 
    11   16   10 1 
    12    8   10 1 
    13    8    9 1 
    14   10   11 1 
    15   10   15 1 
    16   11   14 1 
    17   11   13 1 
