@<TRIPOS>MOLECULE
C:\Users\Praveer\PycharmProjects\pdb_to_mol2_converter\data\pdb\mesn.pdb
   14    13     0     0     0
SMALL
GASTEIGER

@<TRIPOS>ATOM
      1 S           1.8100    0.0010    0.0120 S.O2      1 MES1        0.0000
      2 O1          2.2480   -0.5310    1.2740 O.2       1 MES1        0.0000
      3 O2          2.2750   -0.5500   -1.2330 O.2       1 MES1        0.0000
      4 C3          2.1830    1.7430    0.0020 C.3       1 MES1        0.0000
      5 H31         3.2860    1.8650    0.0140 H         1 MES1        0.0000
      6 H32         1.7460    2.2180    0.9050 H         1 MES1        0.0000
      7 H33         1.7670    2.2040   -0.9170 H         1 MES1        0.0000
      8 C4          0.0130   -0.0440   -0.0070 C.3       1 MES1        0.0000
      9 H41        -0.3250    0.4800   -0.9240 H         1 MES1        0.0000
     10 H42        -0.3440    0.4900    0.8980 H         1 MES1        0.0000
     11 C5         -0.4460   -1.5080   -0.0040 C.3       1 MES1        0.0000
     12 H51        -0.0680   -2.0320    0.9020 H         1 MES1        0.0000
     13 H52        -0.0540   -2.0400   -0.8980 H         1 MES1        0.0000
     14 H53        -1.5540   -1.5720   -0.0120 H         1 MES1        0.0000
@<TRIPOS>BOND
     1    3    1 2 
     2    9    8 1 
     3    7    4 1 
     4   13   11 1 
     5   14   11 1 
     6    8   11 1 
     7    8    1 1 
     8    8   10 1 
     9   11   12 1 
    10    4    1 1 
    11    4    5 1 
    12    4    6 1 
    13    1    2 2 
