@<TRIPOS>MOLECULE
C:\Users\Praveer\PycharmProjects\pdb_to_mol2_converter\data\pdb\meso.pdb
   13    12     0     0     0
SMALL
GASTEIGER

@<TRIPOS>ATOM
      1 O           2.2890   -0.5170    1.2850 O.2       1 MES1        0.0000
      2 S           1.8430    0.0090   -0.0760 S.O       1 MES1        0.0000
      3 C3          1.9760    1.7930    0.0350 C.3       1 MES1        0.0000
      4 H31         3.0400    2.0910    0.1360 H         1 MES1        0.0000
      5 H32         1.4350    2.1690    0.9290 H         1 MES1        0.0000
      6 H33         1.5570    2.2850   -0.8670 H         1 MES1        0.0000
      7 C2          0.0270   -0.0410   -0.0690 C.3       1 MES1        0.0000
      8 H21        -0.3300    0.4540   -0.9950 H         1 MES1        0.0000
      9 H22        -0.3120    0.5230    0.8250 H         1 MES1        0.0000
     10 C1         -0.4370   -1.5030    0.0020 C.3       1 MES1        0.0000
     11 H11        -0.0410   -1.9900    0.9210 H         1 MES1        0.0000
     12 H12        -0.0790   -2.0780   -0.8790 H         1 MES1        0.0000
     13 H13        -1.5460   -1.5580    0.0310 H         1 MES1        0.0000
@<TRIPOS>BOND
     1    8    7 1 
     2   12   10 1 
     3    6    3 1 
     4    2    7 1 
     5    2    3 1 
     6    2    1 2 
     7    7   10 1 
     8    7    9 1 
     9   10   13 1 
    10   10   11 1 
    11    3    4 1 
    12    3    5 1 
