@<TRIPOS>MOLECULE
C:\Users\Praveer\PycharmProjects\pdb_to_mol2_converter\data\pdb\mete.pdb
   12    11     0     0     0
SMALL
GASTEIGER

@<TRIPOS>ATOM
      1 C1          3.4170    1.3740    0.0010 C.3       1 MET1        0.0000
      2 H11         3.8130    2.4110    0.0010 H         1 MET1        0.0000
      3 H12         3.7990    0.8460   -0.9000 H         1 MET1        0.0000
      4 H13         3.7970    0.8450    0.9010 H         1 MET1        0.0000
      5 C2          1.8890    1.3780   -0.0000 C.3       1 MET1        0.0000
      6 H21         1.5100    1.9030   -0.9060 H         1 MET1        0.0000
      7 H22         1.5090    1.9020    0.9050 H         1 MET1        0.0000
      8 O3          1.4210    0.0400   -0.0020 O.3       1 MET1        0.0000
      9 C4          0.0020   -0.0080   -0.0040 C.3       1 MET1        0.0000
     10 H41        -0.3990    0.4900   -0.9130 H         1 MET1        0.0000
     11 H42        -0.4030    0.4910    0.9020 H         1 MET1        0.0000
     12 H43        -0.3270   -1.0700   -0.0050 H         1 MET1        0.0000
@<TRIPOS>BOND
     1   10    9 1 
     2    6    5 1 
     3    3    1 1 
     4   12    9 1 
     5    9    8 1 
     6    9   11 1 
     7    8    5 1 
     8    5    1 1 
     9    5    7 1 
    10    1    2 1 
    11    1    4 1 
