@<TRIPOS>MOLECULE
C:\Users\Praveer\PycharmProjects\pdb_to_mol2_converter\data\pdb\metp.pdb
   17    16     0     0     0
SMALL
GASTEIGER

@<TRIPOS>ATOM
      1 C1         -3.2420   -3.5650    1.8900 C.3       1 MET1        0.0000
      2 H11        -3.2020   -4.5770    1.4290 H         1 MET1        0.0000
      3 H12        -4.1490   -3.0300    1.5240 H         1 MET1        0.0000
      4 H13        -3.3270   -3.6820    2.9910 H         1 MET1        0.0000
      5 O1         -2.0580   -2.8310    1.5880 O.3       1 MET1        0.0000
      6 P2         -1.7840   -2.4320    0.0190 P.3       1 MET1        0.0000
      7 O21        -2.9910   -1.6250   -0.3990 O.3       1 MET1        0.0000
      8 O22        -1.5940   -3.7700   -0.6660 O.2       1 MET1        0.0000
      9 O2         -0.3870   -1.6060    0.0390 O.3       1 MET1        0.0000
     10 P3          0.0070   -0.0230   -0.0440 P.3       1 MET1        0.0000
     11 O31        -0.6350    0.6300    1.1600 O.3       1 MET1        0.0000
     12 O32        -0.4140    0.4370   -1.4220 O.2       1 MET1        0.0000
     13 O3          1.6210   -0.1510    0.1100 O.3       1 MET1        0.0000
     14 P4          2.8640    0.9490    0.0380 P.3       1 MET1        0.0000
     15 O41         3.6050    0.6230   -1.2470 O.2       1 MET1        0.0000
     16 O42         3.6960    0.6600    1.2770 O.3       1 MET1        0.0000
     17 O43         2.2580    2.3370    0.0420 O.3       1 MET1        0.0000
@<TRIPOS>BOND
     1   12   10 2 
     2   15   14 2 
     3    8    6 2 
     4    7    6 1 
     5   10    9 1 
     6   10   13 1 
     7   10   11 1 
     8    6    9 1 
     9    6    5 1 
    10   14   17 1 
    11   14   13 1 
    12   14   16 1 
    13    2    1 1 
    14    3    1 1 
    15    5    1 1 
    16    1    4 1 
