@<TRIPOS>MOLECULE
C:\Users\Praveer\PycharmProjects\pdb_to_mol2_converter\data\pdb\mgalol.pdb
   26    25     0     0     0
SMALL
GASTEIGER

@<TRIPOS>ATOM
      1 C1          0.0430   -0.0340    0.0020 C.3       1 MGA1        0.0000
      2 H11        -0.4610    0.2830    0.9430 H         1 MGA1        0.0000
      3 H12        -0.2880    0.6540   -0.8090 H         1 MGA1        0.0000
      4 O1         -0.3630   -1.3590   -0.3510 O.3       1 MGA1        0.0000
      5 HO1         0.0400   -1.9340    0.3100 H         1 MGA1        0.0000
      6 C2          1.5510    0.0210    0.1420 C.3       1 MGA1        0.0000
      7 H2          1.9860   -0.5850   -0.6910 H         1 MGA1        0.0000
      8 O2          1.9490   -0.5890    1.3780 O.3       1 MGA1        0.0000
      9 HO2         1.8010    0.1070    2.0310 H         1 MGA1        0.0000
     10 C3          2.1000    1.4340   -0.0020 C.3       1 MGA1        0.0000
     11 H3          1.7770    1.8260   -0.9970 H         1 MGA1        0.0000
     12 O3          1.5440    2.2630    1.0320 O.3       1 MGA1        0.0000
     13 HO3         1.5080    3.1480    0.6430 H         1 MGA1        0.0000
     14 C4          3.6150    1.4930    0.1000 C.3       1 MGA1        0.0000
     15 H4          3.9440    1.0740    1.0790 H         1 MGA1        0.0000
     16 O4          4.1850    0.6870   -0.9450 O.3       1 MGA1        0.0000
     17 HO4         4.2970   -0.1970   -0.5790 H         1 MGA1        0.0000
     18 C5          4.1540    2.9250    0.0120 C.3       1 MGA1        0.0000
     19 H5          3.9810    3.3960    1.0110 H         1 MGA1        0.0000
     20 O5          3.4620    3.7250   -0.9560 O.3       1 MGA1        0.0000
     21 HO5         4.1170    4.3920   -1.1980 H         1 MGA1        0.0000
     22 C6          5.6420    2.9700   -0.2800 C.3       1 MGA1        0.0000
     23 H61         5.8430    2.7250   -1.3480 H         1 MGA1        0.0000
     24 H62         6.1620    2.2160    0.3530 H         1 MGA1        0.0000
     25 O6          6.1610    4.2690    0.0360 O.3       1 MGA1        0.0000
     26 HO6         7.1220    4.2170    0.0060 H         1 MGA1        0.0000
@<TRIPOS>BOND
     1   23   22 1 
     2   21   20 1 
     3   11   10 1 
     4   20   18 1 
     5   16   17 1 
     6   16   14 1 
     7    3    1 1 
     8    7    6 1 
     9    4    1 1 
    10    4    5 1 
    11   22   18 1 
    12   22   25 1 
    13   22   24 1 
    14   10   14 1 
    15   10    6 1 
    16   10   12 1 
    17    1    6 1 
    18    1    2 1 
    19   26   25 1 
    20   18   14 1 
    21   18   19 1 
    22   14   15 1 
    23    6    8 1 
    24   13   12 1 
    25    8    9 1 
