@<TRIPOS>MOLECULE
C:\Users\Praveer\PycharmProjects\pdb_to_mol2_converter\data\pdb\mglyol.pdb
   14    13     0     0     0
SMALL
GASTEIGER

@<TRIPOS>ATOM
      1 C1         -0.0170   -0.0280   -0.0370 C.3       1 MGL1        0.0000
      2 H11        -0.3960    0.5670    0.8240 H         1 MGL1        0.0000
      3 H12        -0.4800    0.3700   -0.9680 H         1 MGL1        0.0000
      4 O1         -0.4100   -1.3880    0.1570 O.3       1 MGL1        0.0000
      5 HO1         0.0480   -1.8720   -0.5430 H         1 MGL1        0.0000
      6 C2          1.4910    0.0520   -0.1110 C.3       1 MGL1        0.0000
      7 H2          1.9230   -0.5320    0.7400 H         1 MGL1        0.0000
      8 O2          1.9540   -0.5230   -1.3360 O.3       1 MGL1        0.0000
      9 HO2         2.8280   -0.1240   -1.4500 H         1 MGL1        0.0000
     10 C3          1.9780    1.4810    0.0050 C.3       1 MGL1        0.0000
     11 H31         1.5420    1.9600    0.9110 H         1 MGL1        0.0000
     12 H32         1.6570    2.0690   -0.8860 H         1 MGL1        0.0000
     13 O3          3.4090    1.5050    0.1000 O.3       1 MGL1        0.0000
     14 HO3         3.6480    1.8610    0.9620 H         1 MGL1        0.0000
@<TRIPOS>BOND
     1    9    8 1 
     2    8    6 1 
     3    3    1 1 
     4   12   10 1 
     5    5    4 1 
     6    6    1 1 
     7    6   10 1 
     8    6    7 1 
     9    1    4 1 
    10    1    2 1 
    11   10   13 1 
    12   10   11 1 
    13   13   14 1 
