@<TRIPOS>MOLECULE
C:\Users\Praveer\PycharmProjects\pdb_to_mol2_converter\data\pdb\mgu1.pdb
   12    11     0     0     0
SMALL
GASTEIGER

@<TRIPOS>ATOM
      1 C           1.5270    0.0210   -0.2190 C.cat     1 MGU1        0.0000
      2 N1          2.1920    1.2480   -0.3470 N.pl3     1 MGU1        0.0000
      3 H11         1.4480    1.8930   -0.1260 H         1 MGU1        0.0000
      4 H12         2.8240    1.2730    0.4350 H         1 MGU1        0.0000
      5 N2          2.4250   -1.0590   -0.1700 N.pl3     1 MGU1        0.0000
      6 H21         2.4710   -1.2840    0.8100 H         1 MGU1        0.0000
      7 H22         1.8900   -1.8020   -0.5890 H         1 MGU1        0.0000
      8 N3          0.2440   -0.0630   -0.1030 N.pl3     1 MGU1        0.0000
      9 C4         -0.3610   -1.3810    0.0470 C.3       1 MGU1        0.0000
     10 H41        -0.0380   -1.9250    0.9650 H         1 MGU1        0.0000
     11 H42        -0.1870   -2.0600   -0.8190 H         1 MGU1        0.0000
     12 H43        -1.4690   -1.2960    0.1300 H         1 MGU1        0.0000
@<TRIPOS>BOND
     1   11    9 1 
     2    7    5 1 
     3    2    1 1 
     4    2    3 1 
     5    2    4 1 
     6    1    5 1 
     7    1    8 2 
     8    5    6 1 
     9    8    9 1 
    10    9   12 1 
    11    9   10 1 
