@<TRIPOS>MOLECULE
C:\Users\Praveer\PycharmProjects\pdb_to_mol2_converter\data\pdb\mgu2.pdb
   12    11     0     0     0
SMALL
GASTEIGER

@<TRIPOS>ATOM
      1 C           1.5150   -0.1390    0.0680 C.cat     1 MGU1        0.0000
      2 N1          2.1820    0.9490   -0.0110 N.pl3     1 MGU1        0.0000
      3 H11         1.6060    1.7520   -0.1080 H         1 MGU1        0.0000
      4 N2          2.1360   -1.3870    0.1860 N.pl3     1 MGU1        0.0000
      5 H21         3.0220   -1.1980   -0.2560 H         1 MGU1        0.0000
      6 H22         1.6010   -1.9660   -0.4380 H         1 MGU1        0.0000
      7 N3          0.0980   -0.2150   -0.0180 N.pl3     1 MGU1        0.0000
      8 H31        -0.1370    0.7700   -0.0830 H         1 MGU1        0.0000
      9 C4         -0.5400   -0.7140    1.2270 C.3       1 MGU1        0.0000
     10 H41        -0.1780   -0.1680    2.1260 H         1 MGU1        0.0000
     11 H42        -0.3290   -1.7970    1.3730 H         1 MGU1        0.0000
     12 H43        -1.6450   -0.5930    1.1740 H         1 MGU1        0.0000
@<TRIPOS>BOND
     1    6    4 1 
     2    5    4 1 
     3    3    2 1 
     4    8    7 1 
     5    7    1 1 
     6    7    9 1 
     7    2    1 1 
     8    1    4 2 
     9   12    9 1 
    10    9   11 1 
    11    9   10 1 
