@<TRIPOS>MOLECULE
C:\Users\Praveer\PycharmProjects\pdb_to_mol2_converter\data\pdb\mgua.pdb
   13    12     0     0     0
SMALL
GASTEIGER

@<TRIPOS>ATOM
      1 C           1.6530    1.1960    0.0000 C.cat     1 MGU1        0.0000
      2 N1          1.0130    0.0260   -0.0000 N.pl3     1 MGU1        0.0000
      3 H11         0.0210    0.0110   -0.0000 H         1 MGU1        0.0000
      4 H12         1.5340   -0.8190    0.0000 H         1 MGU1        0.0000
      5 N2          0.9400    2.3200    0.0000 N.pl3     1 MGU1        0.0000
      6 H21        -0.0500    2.2820   -0.0000 H         1 MGU1        0.0000
      7 H22         1.4290    3.1820    0.0000 H         1 MGU1        0.0000
      8 N3          2.9970    1.2160    0.0010 N.pl3     1 MGU1        0.0000
      9 H31         3.4550    0.3320    0.0010 H         1 MGU1        0.0000
     10 C2          3.8100    2.4450    0.0020 C.3       1 MGU1        0.0000
     11 HC1         3.6190    3.0680    0.9060 H         1 MGU1        0.0000
     12 HC2         3.6200    3.0680   -0.9030 H         1 MGU1        0.0000
     13 HC3         4.8970    2.1970    0.0020 H         1 MGU1        0.0000
@<TRIPOS>BOND
     1   12   10 1 
     2    1    2 2 
     3    1    5 1 
     4    1    8 1 
     5    2    3 1 
     6    2    4 1 
     7    5    6 1 
     8    5    7 1 
     9    8    9 1 
    10    8   10 1 
    11   10   13 1 
    12   10   11 1 
