@<TRIPOS>MOLECULE
C:\Users\Praveer\PycharmProjects\pdb_to_mol2_converter\data\pdb\mhyo.pdb
   12    12     0     0     0
SMALL
GASTEIGER

@<TRIPOS>ATOM
      1 N1         -0.1610    1.4510   -0.0000 N.am      1 MHY1        0.0000
      2 C2          0.9600    2.2430   -0.0000 C.2       1 MHY1        0.0000
      3 O2          1.0390    3.4680   -0.0000 O.2       1 MHY1        0.0000
      4 N3          1.9730    1.3130    0.0000 N.am      1 MHY1        0.0000
      5 H3          2.9430    1.5900    0.0000 H         1 MHY1        0.0000
      6 C4          1.6010   -0.0100   -0.0000 C.2       1 MHY1        0.0000
      7 O4          2.3170   -1.0140    0.0000 O.2       1 MHY1        0.0000
      8 C5          0.1180    0.0870   -0.0000 C.2       1 MHY1        0.0000
      9 C6         -0.7040   -0.9750   -0.0000 C.2       1 MHY1        0.0000
     10 H61        -1.7980   -0.8630   -0.0000 H         1 MHY1        0.0000
     11 H62        -0.2810   -1.9930   -0.0000 H         1 MHY1        0.0000
     12 H1         -1.0770    1.8780   -0.0000 H         1 MHY1        0.0000
@<TRIPOS>BOND
     1    1    2 am
     2    1    8 1 
     3    1   12 1 
     4    2    3 2 
     5    2    4 am
     6    4    5 1 
     7    4    6 am
     8    6    7 2 
     9    6    8 1 
    10    8    9 2 
    11    9   10 1 
    12    9   11 1 
