@<TRIPOS>MOLECULE
C:\Users\Praveer\PycharmProjects\pdb_to_mol2_converter\data\pdb\micy.pdb
    7     6     0     0     0
SMALL
GASTEIGER

@<TRIPOS>ATOM
      1 O          -0.0350    0.0550   -0.0040 O.2       1 MIC1        0.0000
      2 C           1.1330    0.0050   -0.0040 C.1       1 MIC1        0.0000
      3 N           2.3200    0.1130   -0.0050 N.2       1 MIC1        0.0000
      4 C1          3.5240   -0.6880    0.0060 C.3       1 MIC1        0.0000
      5 H11         3.5990   -1.3540   -0.8820 H         1 MIC1        0.0000
      6 H12         3.5910   -1.3430    0.9030 H         1 MIC1        0.0000
      7 H13         4.4420   -0.0590    0.0060 H         1 MIC1        0.0000
@<TRIPOS>BOND
     1    5    4 1 
     2    3    2 2 
     3    3    4 1 
     4    1    2 2 
     5    4    7 1 
     6    4    6 1 
