@<TRIPOS>MOLECULE
C:\Users\Praveer\PycharmProjects\pdb_to_mol2_converter\data\pdb\mimi.pdb
   12    12     0     0     0
SMALL
GASTEIGER

@<TRIPOS>ATOM
      1 ND1         2.2330    1.1600    0.0010 N.ar      1 MIM1        0.0000
      2 HD1         1.8620    2.0980    0.0040 H         1 MIM1        0.0000
      3 CG          1.5010   -0.0050   -0.0040 C.ar      1 MIM1        0.0000
      4 CB         -0.0020   -0.0330   -0.0040 C.3       1 MIM1        0.0000
      5 HB1        -0.3910    0.4830   -0.9090 H         1 MIM1        0.0000
      6 HB2        -0.3910    0.4810    0.9010 H         1 MIM1        0.0000
      7 HB3        -0.3710   -1.0810   -0.0060 H         1 MIM1        0.0000
      8 NE2         3.7060   -0.5070   -0.0050 N.ar      1 MIM1        0.0000
      9 CD2         2.4170   -1.0170   -0.0070 C.ar      1 MIM1        0.0000
     10 HD2         2.2610   -2.0880   -0.0110 H         1 MIM1        0.0000
     11 CE1         3.5510    0.8000   -0.0010 C.ar      1 MIM1        0.0000
     12 HE1         4.3690    1.5240    0.0020 H         1 MIM1        0.0000
@<TRIPOS>BOND
     1    5    4 1 
     2   10    9 1 
     3    9    8 ar
     4    9    3 ar
     5    7    4 1 
     6    8   11 ar
     7    3    4 1 
     8    3    1 ar
     9    4    6 1 
    10   11    1 ar
    11   11   12 1 
    12    1    2 1 
