@<TRIPOS>MOLECULE
C:\Users\Praveer\PycharmProjects\pdb_to_mol2_converter\data\pdb\mind.pdb
   19    20     0     0     0
SMALL
GASTEIGER

@<TRIPOS>ATOM
      1 CB         -0.0320   -0.0290    0.0030 C.3       1 MIN1        0.0000
      2 HB1        -0.3690   -0.5800    0.9070 H         1 MIN1        0.0000
      3 HB2        -0.3710   -0.5800   -0.9010 H         1 MIN1        0.0000
      4 HB3        -0.4990    0.9790    0.0030 H         1 MIN1        0.0000
      5 CG          1.4700    0.0790    0.0010 C.ar      1 MIN1        0.0000
      6 CD2         2.3740   -1.0380    0.0010 C.ar      1 MIN1        0.0000
      7 CD1         2.2290    1.2170    0.0010 C.ar      1 MIN1        0.0000
      8 HD1         1.8810    2.2440    0.0010 H         1 MIN1        0.0000
      9 NE1         3.5640    0.8360   -0.0000 N.ar      1 MIN1        0.0000
     10 HE1         4.3660    1.4490   -0.0010 H         1 MIN1        0.0000
     11 CE2         3.6820   -0.5300   -0.0000 C.ar      1 MIN1        0.0000
     12 CE3         2.1630   -2.4140    0.0010 C.ar      1 MIN1        0.0000
     13 HE3         1.1580   -2.8090    0.0010 H         1 MIN1        0.0000
     14 CZ2         4.7760   -1.3770   -0.0000 C.ar      1 MIN1        0.0000
     15 HZ2         5.7750   -0.9720   -0.0010 H         1 MIN1        0.0000
     16 CZ3         3.2660   -3.2790    0.0000 C.ar      1 MIN1        0.0000
     17 HZ3         3.1140   -4.3500    0.0000 H         1 MIN1        0.0000
     18 CH2         4.5680   -2.7630   -0.0000 C.ar      1 MIN1        0.0000
     19 HH2         5.4130   -3.4380   -0.0010 H         1 MIN1        0.0000
@<TRIPOS>BOND
     1    3    1 1 
     2   10    9 1 
     3   15   14 1 
     4   19   18 1 
     5    9   11 ar
     6    9    7 ar
     7   11   14 ar
     8   11    6 ar
     9   14   18 ar
    10   16   17 1 
    11   16   18 ar
    12   16   12 ar
    13    5    6 ar
    14    5    7 ar
    15    5    1 1 
    16    6   12 ar
    17    7    8 1 
    18   12   13 1 
    19    1    4 1 
    20    1    2 1 
