@<TRIPOS>MOLECULE
C:\Users\Praveer\PycharmProjects\pdb_to_mol2_converter\data\pdb\mmam.pdb
   11    10     0     0     0
SMALL
GASTEIGER

@<TRIPOS>ATOM
      1 C1          1.1190    0.0000   -0.0140 C.3       1 MMA1        0.0000
      2 H11         1.5280   -0.4620   -0.9380 H         1 MMA1        0.0000
      3 H12         0.0080   -0.0000   -0.0170 H         1 MMA1        0.0000
      4 H13         1.5260   -0.4840    0.8990 H         1 MMA1        0.0000
      5 N           1.5660    1.4380    0.0030 N.4       1 MMA1        0.0000
      6 HN1         1.2530    1.8970   -0.8440 H         1 MMA1        0.0000
      7 HN2         2.5770    1.4760   -0.0460 H         1 MMA1        0.0000
      8 C2          1.0950    2.2240    1.1990 C.3       1 MMA1        0.0000
      9 H21         1.5040    1.7260    2.1030 H         1 MMA1        0.0000
     10 H22        -0.0160    2.2050    1.1890 H         1 MMA1        0.0000
     11 H23         1.4860    3.2570    1.0900 H         1 MMA1        0.0000
@<TRIPOS>BOND
     1    2    1 1 
     2    6    5 1 
     3    7    5 1 
     4    3    1 1 
     5    1    5 1 
     6    1    4 1 
     7    5    8 1 
     8   11    8 1 
     9   10    8 1 
    10    8    9 1 
