@<TRIPOS>MOLECULE
C:\Users\Praveer\PycharmProjects\pdb_to_mol2_converter\data\pdb\mmmu.pdb
   17    16     0     0     0
SMALL
GASTEIGER

@<TRIPOS>ATOM
      1 C1          1.0990   -0.0010   -0.0330 C.3       1 MMM1        0.0000
      2 H11        -0.0120    0.0130    0.0040 H         1 MMM1        0.0000
      3 H12         1.4770   -0.5940    0.8300 H         1 MMM1        0.0000
      4 H13         1.4160   -0.5130   -0.9700 H         1 MMM1        0.0000
      5 N1          1.6250    1.3390    0.0080 N.am      1 MMM1        0.0000
      6 H1          1.0140    2.1020    0.1790 H         1 MMM1        0.0000
      7 C           2.9680    1.5740   -0.0650 C.2       1 MMM1        0.0000
      8 O           3.7780    0.6580   -0.1590 O.2       1 MMM1        0.0000
      9 N2          3.2990    2.9070    0.0020 N.am      1 MMM1        0.0000
     10 C2          2.3170    3.9390    0.2850 C.3       1 MMM1        0.0000
     11 H21         2.0670    3.8820    1.3670 H         1 MMM1        0.0000
     12 H22         1.4270    3.8070   -0.3660 H         1 MMM1        0.0000
     13 H23         2.7930    4.9150    0.0510 H         1 MMM1        0.0000
     14 C3          4.6990    3.2260    0.1990 C.3       1 MMM1        0.0000
     15 H31         5.3450    2.4200   -0.2160 H         1 MMM1        0.0000
     16 H32         4.8610    3.3400    1.2910 H         1 MMM1        0.0000
     17 H33         4.9020    4.1760   -0.3380 H         1 MMM1        0.0000
@<TRIPOS>BOND
     1    4    1 1 
     2   12   10 1 
     3   17   14 1 
     4   15   14 1 
     5    8    7 2 
     6    7    9 am
     7    7    5 am
     8    1    2 1 
     9    1    5 1 
    10    1    3 1 
    11    9   14 1 
    12    9   10 1 
    13    5    6 1 
    14   13   10 1 
    15   14   16 1 
    16   10   11 1 
