@<TRIPOS>MOLECULE
C:\Users\Praveer\PycharmProjects\pdb_to_mol2_converter\data\pdb\mmsm.pdb
   13    12     0     0     0
SMALL
GASTEIGER

@<TRIPOS>ATOM
      1 C3         -0.0030   -0.0160   -0.0570 C.3       1 MMS1        0.0000
      2 H31        -0.3520   -1.0640    0.0290 H         1 MMS1        0.0000
      3 H32        -0.3120    0.4160   -1.0290 H         1 MMS1        0.0000
      4 H33        -0.4020    0.5920    0.7800 H         1 MMS1        0.0000
      5 S1          1.7660   -0.0000    0.0330 S.O2      1 MMS1        0.0000
      6 O11         2.2720   -0.6400   -1.1500 O.2       1 MMS1        0.0000
      7 O12         2.1450   -0.4520    1.3390 O.2       1 MMS1        0.0000
      8 N2          2.0960    1.5960   -0.0140 N.3       1 MMS1        0.0000
      9 H21         2.4870    1.8460    0.8940 H         1 MMS1        0.0000
     10 C4          2.8670    2.0850   -1.1750 C.3       1 MMS1        0.0000
     11 H41         2.3610    1.8270   -2.1320 H         1 MMS1        0.0000
     12 H42         3.8850    1.6350   -1.1930 H         1 MMS1        0.0000
     13 H43         2.9740    3.1910   -1.1330 H         1 MMS1        0.0000
@<TRIPOS>BOND
     1   11   10 1 
     2   12   10 1 
     3   10   13 1 
     4   10    8 1 
     5    6    5 2 
     6    3    1 1 
     7    1    2 1 
     8    1    5 1 
     9    1    4 1 
    10    8    5 1 
    11    8    9 1 
    12    5    7 2 
