@<TRIPOS>MOLECULE
C:\Users\Praveer\PycharmProjects\pdb_to_mol2_converter\data\pdb\mmst.pdb
   12    11     0     0     0
SMALL
GASTEIGER

@<TRIPOS>ATOM
      1 S1          1.6100    0.0110   -0.0060 S.3       1 MMS1        0.0000
      2 C2          1.7960    1.7800   -0.0010 C.3       1 MMS1        0.0000
      3 H21         2.8770    2.0230   -0.0100 H         1 MMS1        0.0000
      4 H22         1.3220    2.1890    0.9150 H         1 MMS1        0.0000
      5 H23         1.3050    2.1960   -0.9040 H         1 MMS1        0.0000
      6 O3          2.0990   -0.5090    1.2430 O.3       1 MMS1        0.0000
      7 O4          2.0750   -0.4990   -1.2670 O.3       1 MMS1        0.0000
      8 O5          0.0090   -0.0070    0.0090 O.3       1 MMS1        0.0000
      9 C6         -0.5640   -1.3230    0.0090 C.3       1 MMS1        0.0000
     10 H61        -0.2430   -1.8890    0.9110 H         1 MMS1        0.0000
     11 H62        -0.2530   -1.8840   -0.9000 H         1 MMS1        0.0000
     12 H63        -1.6720   -1.2480    0.0150 H         1 MMS1        0.0000
@<TRIPOS>BOND
     1    7    1 1 
     2    5    2 1 
     3   11    9 1 
     4    3    2 1 
     5    1    2 1 
     6    1    8 1 
     7    1    6 1 
     8    2    4 1 
     9    8    9 1 
    10    9   12 1 
    11    9   10 1 
