@<TRIPOS>MOLECULE
C:\Users\Praveer\PycharmProjects\pdb_to_mol2_converter\data\pdb\moac.pdb
   12    11     0     0     0
SMALL
GASTEIGER

@<TRIPOS>ATOM
      1 C5          1.1150    0.0080    0.0040 C.3       1 MOA1        0.0000
      2 H51         1.4670   -0.5260    0.9140 H         1 MOA1        0.0000
      3 H52         1.4670   -0.5310   -0.9020 H         1 MOA1        0.0000
      4 H53         0.0030    0.0150    0.0040 H         1 MOA1        0.0000
      5 O6          1.5890    1.3460    0.0010 O.3       1 MOA1        0.0000
      6 C7          3.0160    1.3910    0.0000 C.3       1 MOA1        0.0000
      7 H71         3.4020    0.8760   -0.9050 H         1 MOA1        0.0000
      8 H72         3.4030    0.8770    0.9050 H         1 MOA1        0.0000
      9 C8          3.5600    2.8260   -0.0000 C.2       1 MOA1        0.0000
     10 O8          2.9330    3.8700   -0.0010 O.2       1 MOA1        0.0000
     11 O9          4.9440    2.8730   -0.0000 O.3       1 MOA1        0.0000
     12 H9          5.2000    3.7950   -0.0010 H         1 MOA1        0.0000
@<TRIPOS>BOND
     1    7    6 1 
     2    3    1 1 
     3   10    9 2 
     4   12   11 1 
     5    6    9 1 
     6    6    5 1 
     7    6    8 1 
     8    9   11 1 
     9    5    1 1 
    10    1    4 1 
    11    1    2 1 
