@<TRIPOS>MOLECULE
C:\Users\Praveer\PycharmProjects\pdb_to_mol2_converter\data\pdb\moae.pdb
   15    14     0     0     0
SMALL
GASTEIGER

@<TRIPOS>ATOM
      1 C5          1.1120   -0.0020    0.0040 C.3       1 MOA1        0.0000
      2 H51         1.4650   -0.5350    0.9130 H         1 MOA1        0.0000
      3 H52         1.4660   -0.5390   -0.9020 H         1 MOA1        0.0000
      4 H53         0.0000   -0.0020    0.0040 H         1 MOA1        0.0000
      5 O7          1.5780    1.3400    0.0010 O.3       1 MOA1        0.0000
      6 C7          3.0090    1.4000    0.0010 C.3       1 MOA1        0.0000
      7 H81         3.3990    0.8880   -0.9030 H         1 MOA1        0.0000
      8 H82         3.4000    0.8870    0.9040 H         1 MOA1        0.0000
      9 C8          3.5790    2.8320    0.0010 C.2       1 MOA1        0.0000
     10 O8          2.9520    3.8760    0.0010 O.2       1 MOA1        0.0000
     11 O9          4.9190    2.7520    0.0020 O.3       1 MOA1        0.0000
     12 C10         5.5410    4.0490    0.0040 C.3       1 MOA1        0.0000
     13 H101        5.2480    4.6280    0.9090 H         1 MOA1        0.0000
     14 H102        5.2490    4.6290   -0.9010 H         1 MOA1        0.0000
     15 H103        6.6470    3.9380    0.0050 H         1 MOA1        0.0000
@<TRIPOS>BOND
     1    7    6 1 
     2    3    1 1 
     3   14   12 1 
     4    5    6 1 
     5    5    1 1 
     6    6    9 1 
     7    6    8 1 
     8    9   10 2 
     9    9   11 1 
    10   11   12 1 
    11    1    4 1 
    12    1    2 1 
    13   12   15 1 
    14   12   13 1 
