@<TRIPOS>MOLECULE
C:\Users\Praveer\PycharmProjects\pdb_to_mol2_converter\data\pdb\moat.pdb
   11    10     0     0     0
SMALL
GASTEIGER

@<TRIPOS>ATOM
      1 C5          1.1080   -0.0010    0.0040 C.3       1 MOA1        0.0000
      2 H51         1.4680   -0.5280    0.9140 H         1 MOA1        0.0000
      3 H52         1.4680   -0.5330   -0.9020 H         1 MOA1        0.0000
      4 H53        -0.0030    0.0020    0.0040 H         1 MOA1        0.0000
      5 O7          1.5740    1.3380    0.0010 O.3       1 MOA1        0.0000
      6 C7          3.0120    1.3890    0.0000 C.3       1 MOA1        0.0000
      7 H71         3.3920    0.8640   -0.9010 H         1 MOA1        0.0000
      8 H72         3.3930    0.8650    0.9020 H         1 MOA1        0.0000
      9 C8          3.6770    2.7800   -0.0010 C.2       1 MOA1        0.0000
     10 O81         2.9560    3.8090   -0.0010 O.co2     1 MOA1        0.0000
     11 O82         4.9400    2.7320   -0.0010 O.co2     1 MOA1        0.0000
@<TRIPOS>BOND
     1    3    1 1 
     2    7    6 1 
     3    9   10 ar
     4    9   11 ar
     5    9    6 1 
     6    6    5 1 
     7    6    8 1 
     8    5    1 1 
     9    1    4 1 
    10    1    2 1 
