@<TRIPOS>MOLECULE
C:\Users\Praveer\PycharmProjects\pdb_to_mol2_converter\data\pdb\mobu.pdb
   14    13     0     0     0
SMALL
GASTEIGER

@<TRIPOS>ATOM
      1 C1          1.3560   -0.1050    0.0010 C.2       1 MOB1        0.0000
      2 H11         1.8970   -1.0660    0.0010 H         1 MOB1        0.0000
      3 C2          0.0150   -0.0800    0.0000 C.2       1 MOB1        0.0000
      4 H21        -0.5200    0.8820   -0.0000 H         1 MOB1        0.0000
      5 O1          2.1080    1.0350    0.0010 O.2       1 MOB1        0.0000
      6 C           3.5120    0.8000   -0.0050 C.3       1 MOB1        0.0000
      7 H1          3.8200    0.2420   -0.9170 H         1 MOB1        0.0000
      8 H2          3.8270    0.2390    0.9030 H         1 MOB1        0.0000
      9 H3          4.0350    1.7790   -0.0050 H         1 MOB1        0.0000
     10 C3         -0.7750   -1.3020    0.0000 C.2       1 MOB1        0.0000
     11 H31        -0.2520   -2.2740    0.0010 H         1 MOB1        0.0000
     12 C4         -2.1190   -1.3030   -0.0000 C.2       1 MOB1        0.0000
     13 H41        -2.6880   -0.3610   -0.0000 H         1 MOB1        0.0000
     14 H42        -2.6820   -2.2480   -0.0000 H         1 MOB1        0.0000
@<TRIPOS>BOND
     1    7    6 1 
     2    6    9 1 
     3    6    5 1 
     4    6    8 1 
     5    3    4 1 
     6    3   10 1 
     7    3    1 2 
     8   10   12 2 
     9   10   11 1 
    10   12   13 1 
    11   12   14 1 
    12    1    2 1 
    13    1    5 1 
