@<TRIPOS>MOLECULE
C:\Users\Praveer\PycharmProjects\pdb_to_mol2_converter\data\pdb\moet.pdb
   10     9     0     0     0
SMALL
GASTEIGER

@<TRIPOS>ATOM
      1 C1         -0.0220   -0.0000    0.0000 C.2       1 MOE1        0.0000
      2 H11        -0.6580   -0.8980   -0.0000 H         1 MOE1        0.0000
      3 H12        -0.5060    0.9890   -0.0000 H         1 MOE1        0.0000
      4 C2          1.3150   -0.0770    0.0010 C.2       1 MOE1        0.0000
      5 H21         1.8390   -1.0500    0.0020 H         1 MOE1        0.0000
      6 O3          2.0840    1.0490    0.0010 O.2       1 MOE1        0.0000
      7 C4          3.4830    0.7920   -0.0050 C.3       1 MOE1        0.0000
      8 H41         3.7820    0.2290   -0.9170 H         1 MOE1        0.0000
      9 H42         3.7900    0.2260    0.9030 H         1 MOE1        0.0000
     10 H43         4.0210    1.7630   -0.0050 H         1 MOE1        0.0000
@<TRIPOS>BOND
     1    8    7 1 
     2    7   10 1 
     3    7    6 1 
     4    7    9 1 
     5    1    2 1 
     6    1    3 1 
     7    1    4 2 
     8    4    6 1 
     9    4    5 1 
