@<TRIPOS>MOLECULE
C:\Users\Praveer\PycharmProjects\pdb_to_mol2_converter\data\pdb\morp.pdb
   16    16     0     0     0
SMALL
GASTEIGER

@<TRIPOS>ATOM
      1 O1         -0.0570   -0.0720   -0.0380 O.3       1 MOR1        0.0000
      2 C2          1.3700    0.0130    0.0140 C.3       1 MOR1        0.0000
      3 H21         1.7770   -0.5080   -0.8820 H         1 MOR1        0.0000
      4 H22         1.7520   -0.5300    0.9070 H         1 MOR1        0.0000
      5 C3          1.8390    1.4710    0.0040 C.3       1 MOR1        0.0000
      6 H31         1.4300    2.0330   -0.8540 H         1 MOR1        0.0000
      7 H32         2.9370    1.5730    0.0190 H         1 MOR1        0.0000
      8 N4          1.3490    2.1960    1.2360 N.4       1 MOR1        0.0000
      9 H41         1.2320    3.1750    1.0260 H         1 MOR1        0.0000
     10 H42         2.0410    2.1460    1.9670 H         1 MOR1        0.0000
     11 C5          0.0470    1.6110    1.7330 C.3       1 MOR1        0.0000
     12 H51        -0.4740    2.4400    2.2400 H         1 MOR1        0.0000
     13 H52         0.3300    0.8450    2.4760 H         1 MOR1        0.0000
     14 C6         -0.7560    1.0180    0.5710 C.3       1 MOR1        0.0000
     15 H61        -1.7260    0.6310    0.9580 H         1 MOR1        0.0000
     16 H62        -0.9960    1.7910   -0.1930 H         1 MOR1        0.0000
@<TRIPOS>BOND
     1    3    2 1 
     2    6    5 1 
     3   16   14 1 
     4    1    2 1 
     5    1   14 1 
     6    5    2 1 
     7    5    7 1 
     8    5    8 1 
     9    2    4 1 
    10   14   15 1 
    11   14   11 1 
    12    9    8 1 
    13    8   11 1 
    14    8   10 1 
    15   11   12 1 
    16   11   13 1 
