@<TRIPOS>MOLECULE
C:\Users\Praveer\PycharmProjects\pdb_to_mol2_converter\data\pdb\mp_0.pdb
   11    10     0     0     0
SMALL
GASTEIGER

@<TRIPOS>ATOM
      1 C1          1.0870   -0.0030   -0.0200 C.3       1 MP_1        0.0000
      2 O1          1.5800    1.3270    0.1470 O.3       1 MP_1        0.0000
      3 P1          3.1230    1.6320    0.0550 P.3       1 MP_1        0.0000
      4 O2          3.3680    3.1700    0.0140 O.3       1 MP_1        0.0000
      5 O3          3.8760    1.1210    1.3210 O.3       1 MP_1        0.0000
      6 O4          3.7660    1.0370   -1.1220 O.2       1 MP_1        0.0000
      7 H11         1.3860   -0.6580    0.8310 H         1 MP_1        0.0000
      8 H12         1.4350   -0.4600   -0.9760 H         1 MP_1        0.0000
      9 H13        -0.0260    0.0170   -0.0480 H         1 MP_1        0.0000
     10 H2          3.0680    3.5420   -0.8200 H         1 MP_1        0.0000
     11 H3          3.9780    0.1660    1.2960 H         1 MP_1        0.0000
@<TRIPOS>BOND
     1    6    3 2 
     2    8    1 1 
     3   10    4 1 
     4    9    1 1 
     5    1    2 1 
     6    1    7 1 
     7    4    3 1 
     8    3    2 1 
     9    3    5 1 
    10   11    5 1 
