@<TRIPOS>MOLECULE
C:\Users\Praveer\PycharmProjects\pdb_to_mol2_converter\data\pdb\mp_1.pdb
   10     9     0     0     0
SMALL
GASTEIGER

@<TRIPOS>ATOM
      1 C1          2.3070    1.1960    0.0100 C.3       1 MP_1        0.0000
      2 O1          1.5730   -0.0280    0.0090 O.3       1 MP_1        0.0000
      3 P1         -0.0490    0.0670   -0.0170 P.3       1 MP_1        0.0000
      4 O2         -0.4730   -1.4700   -0.0100 O.3       1 MP_1        0.0000
      5 O3         -0.4540    0.7230   -1.3090 O.2       1 MP_1        0.0000
      6 O4         -0.4650    0.6500    1.3030 O.3       1 MP_1        0.0000
      7 H11         2.0650    1.8070    0.9110 H         1 MP_1        0.0000
      8 H12         2.0890    1.7950   -0.9040 H         1 MP_1        0.0000
      9 H13         3.3960    0.9760    0.0250 H         1 MP_1        0.0000
     10 H2         -0.1700   -1.8610    0.8140 H         1 MP_1        0.0000
@<TRIPOS>BOND
     1    5    3 2 
     2    8    1 1 
     3    3    4 1 
     4    3    2 1 
     5    3    6 1 
     6    4   10 1 
     7    2    1 1 
     8    1    9 1 
     9    1    7 1 
