@<TRIPOS>MOLECULE
C:\Users\Praveer\PycharmProjects\pdb_to_mol2_converter\data\pdb\mp_2.pdb
    9     8     0     0     0
SMALL
GASTEIGER

@<TRIPOS>ATOM
      1 P1         -0.0190    0.1130    0.0000 P.3       1 MP_1        0.0000
      2 O1          1.6260    0.0210    0.0010 O.3       1 MP_1        0.0000
      3 O2         -0.4800   -1.3370   -0.0010 O.3       1 MP_1        0.0000
      4 O3         -0.3700    0.8670   -1.2750 O.2       1 MP_1        0.0000
      5 O4         -0.3710    0.8660    1.2750 O.3       1 MP_1        0.0000
      6 C1          2.3760    1.2340    0.0030 C.3       1 MP_1        0.0000
      7 H11         2.1320    1.8340    0.9090 H         1 MP_1        0.0000
      8 H12         2.1330    1.8360   -0.9010 H         1 MP_1        0.0000
      9 H13         3.4600    1.0030    0.0030 H         1 MP_1        0.0000
@<TRIPOS>BOND
     1    4    1 2 
     2    8    6 1 
     3    3    1 1 
     4    1    2 1 
     5    1    5 1 
     6    2    6 1 
     7    6    9 1 
     8    6    7 1 
