@<TRIPOS>MOLECULE
C:\Users\Praveer\PycharmProjects\pdb_to_mol2_converter\data\pdb\mpre.pdb
   15    14     0     0     0
SMALL
GASTEIGER

@<TRIPOS>ATOM
      1 C1         -0.4910   -1.3330    0.0040 C.3       1 MPR1        0.0000
      2 H11        -0.1540   -1.8770    0.9130 H         1 MPR1        0.0000
      3 H12        -0.1550   -1.8810   -0.9020 H         1 MPR1        0.0000
      4 H13        -1.6020   -1.2910    0.0050 H         1 MPR1        0.0000
      5 O2          0.0270   -0.0120    0.0010 O.3       1 MPR1        0.0000
      6 C3          1.4460   -0.0170    0.0000 C.3       1 MPR1        0.0000
      7 H31         1.8130   -0.5490   -0.9040 H         1 MPR1        0.0000
      8 H32         1.8150   -0.5480    0.9050 H         1 MPR1        0.0000
      9 C4          1.9740    1.4230   -0.0010 C.3       1 MPR1        0.0000
     10 H41         1.5690    1.9450    0.8960 H         1 MPR1        0.0000
     11 H42         1.5680    1.9440   -0.8980 H         1 MPR1        0.0000
     12 C5          3.5040    1.5280   -0.0020 C.3       1 MPR1        0.0000
     13 H51         3.9280    1.0370   -0.9040 H         1 MPR1        0.0000
     14 H52         3.9290    1.0370    0.9000 H         1 MPR1        0.0000
     15 H53         3.8200    2.5940   -0.0020 H         1 MPR1        0.0000
@<TRIPOS>BOND
     1    7    6 1 
     2   13   12 1 
     3    3    1 1 
     4   11    9 1 
     5   12   15 1 
     6   12    9 1 
     7   12   14 1 
     8    9    6 1 
     9    9   10 1 
    10    6    5 1 
    11    6    8 1 
    12    5    1 1 
    13    1    4 1 
    14    1    2 1 
