@<TRIPOS>MOLECULE
C:\Users\Praveer\PycharmProjects\pdb_to_mol2_converter\data\pdb\mpro.pdb
   14    13     0     0     0
SMALL
GASTEIGER

@<TRIPOS>ATOM
      1 C1          0.0190   -0.0230    0.0010 C.3       1 MPR1        0.0000
      2 C           1.5510    0.0200   -0.0000 C.2       1 MPR1        0.0000
      3 OM          1.9490    1.2930   -0.0020 O.3       1 MPR1        0.0000
      4 C2          3.3820    1.4190   -0.0030 C.3       1 MPR1        0.0000
      5 O           2.2890   -0.9470   -0.0000 O.2       1 MPR1        0.0000
      6 H12        -0.3350    0.5210   -0.9000 H         1 MPR1        0.0000
      7 H13        -0.3330    0.5210    0.9020 H         1 MPR1        0.0000
      8 H21         3.8210    0.9420   -0.9090 H         1 MPR1        0.0000
      9 H22         3.8230    0.9420    0.9020 H         1 MPR1        0.0000
     10 H23         3.6660    2.4940   -0.0040 H         1 MPR1        0.0000
     11 C11        -0.5380   -1.4630    0.0020 C.3       1 MPR1        0.0000
     12 H111       -0.1910   -2.0160    0.9020 H         1 MPR1        0.0000
     13 H112       -0.1920   -2.0170   -0.8980 H         1 MPR1        0.0000
     14 H113       -1.6490   -1.4530    0.0020 H         1 MPR1        0.0000
@<TRIPOS>BOND
     1    8    4 1 
     2    6    1 1 
     3   13   11 1 
     4   10    4 1 
     5    4    3 1 
     6    4    9 1 
     7    3    2 1 
     8    2    5 2 
     9    2    1 1 
    10    1   11 1 
    11    1    7 1 
    12   11   14 1 
    13   11   12 1 
