@<TRIPOS>MOLECULE
C:\Users\Praveer\PycharmProjects\pdb_to_mol2_converter\data\pdb\mpyu.pdb
   20    20     0     0     0
SMALL
GASTEIGER

@<TRIPOS>ATOM
      1 C1          1.4090    0.0080   -0.0010 C.ar      1 MPY1        0.0000
      2 H1          1.9810   -0.9040   -0.0090 H         1 MPY1        0.0000
      3 C2          2.0720    1.2430    0.0140 C.ar      1 MPY1        0.0000
      4 H2          3.1540    1.2840    0.0260 H         1 MPY1        0.0000
      5 N3          1.4070    2.3960    0.0020 N.ar      1 MPY1        0.0000
      6 C4          0.0770    2.4120   -0.0170 C.ar      1 MPY1        0.0000
      7 H4         -0.4160    3.3760   -0.0270 H         1 MPY1        0.0000
      8 C5         -0.6740    1.2270   -0.0300 C.ar      1 MPY1        0.0000
      9 H5         -1.7500    1.2650   -0.0460 H         1 MPY1        0.0000
     10 C6          0.0070   -0.0000   -0.0120 C.ar      1 MPY1        0.0000
     11 N6         -0.7900   -1.1740   -0.0560 N.am      1 MPY1        0.0000
     12 H6         -1.7490   -1.0190   -0.2360 H         1 MPY1        0.0000
     13 C7         -0.4120   -2.4450    0.2720 C.2       1 MPY1        0.0000
     14 O7          0.6710   -2.7900    0.7250 O.2       1 MPY1        0.0000
     15 N8         -1.4290   -3.3260    0.0480 N.am      1 MPY1        0.0000
     16 H8         -2.2440   -3.0210   -0.4280 H         1 MPY1        0.0000
     17 C9         -1.2770   -4.7350    0.3210 C.3       1 MPY1        0.0000
     18 H91        -1.0650   -4.9040    1.4010 H         1 MPY1        0.0000
     19 H92        -0.4340   -5.1610   -0.2690 H         1 MPY1        0.0000
     20 H93        -2.2050   -5.2880    0.0560 H         1 MPY1        0.0000
@<TRIPOS>BOND
     1   16   15 1 
     2   19   17 1 
     3   12   11 1 
     4   11   10 1 
     5   11   13 am
     6    9    8 1 
     7    8    6 ar
     8    8   10 ar
     9    7    6 1 
    10    6    5 ar
    11   10    1 ar
    12    2    1 1 
    13    1    3 ar
    14    5    3 ar
    15    3    4 1 
    16   15   13 am
    17   15   17 1 
    18   20   17 1 
    19   13   14 2 
    20   17   18 1 
