@<TRIPOS>MOLECULE
C:\Users\Praveer\PycharmProjects\pdb_to_mol2_converter\data\pdb\mrdn.pdb
   11    11     0     0     0
SMALL
GASTEIGER

@<TRIPOS>ATOM
      1 S1         -0.6240    1.6360   -0.0000 S.3       1 MRD1        0.0000
      2 C2          1.0020    2.3320   -0.0000 C.2       1 MRD1        0.0000
      3 S2          1.3400    3.9220   -0.0000 S.2       1 MRD1        0.0000
      4 N3          1.9230    1.3140    0.0000 N.am      1 MRD1        0.0000
      5 H3          2.9120    1.5200    0.0000 H         1 MRD1        0.0000
      6 C4          1.5120    0.0060   -0.0000 C.2       1 MRD1        0.0000
      7 O4          2.2490   -0.9840    0.0000 O.2       1 MRD1        0.0000
      8 C5          0.0150   -0.0140   -0.0000 C.2       1 MRD1        0.0000
      9 C6         -0.6790   -1.1660   -0.0000 C.2       1 MRD1        0.0000
     10 H61        -1.7780   -1.1550   -0.0000 H         1 MRD1        0.0000
     11 H62        -0.1510   -2.1330   -0.0000 H         1 MRD1        0.0000
@<TRIPOS>BOND
     1    1    2 1 
     2    1    8 1 
     3    2    3 2 
     4    2    4 1 
     5    4    5 1 
     6    4    6 am
     7    6    7 2 
     8    6    8 1 
     9    8    9 2 
    10    9   10 1 
    11    9   11 1 
