@<TRIPOS>MOLECULE
C:\Users\Praveer\PycharmProjects\pdb_to_mol2_converter\data\pdb\mribol.pdb
   22    21     0     0     0
SMALL
GASTEIGER

@<TRIPOS>ATOM
      1 C1          0.0050    0.0060   -0.0000 C.3       1 MRI1        0.0000
      2 H11        -0.3350   -1.0480    0.1330 H         1 MRI1        0.0000
      3 H12        -0.3470    0.5880    0.8820 H         1 MRI1        0.0000
      4 O1         -0.5890    0.5210   -1.2010 O.3       1 MRI1        0.0000
      5 HO1        -0.9920    1.3700   -0.9810 H         1 MRI1        0.0000
      6 C2          1.5210    0.0340   -0.0800 C.3       1 MRI1        0.0000
      7 H2          1.9120   -0.5340    0.7980 H         1 MRI1        0.0000
      8 O2          1.9480   -0.6600   -1.2570 O.3       1 MRI1        0.0000
      9 HO2         1.1730   -0.5880   -1.8350 H         1 MRI1        0.0000
     10 C3          2.0910    1.4410   -0.0330 C.3       1 MRI1        0.0000
     11 H3          1.5370    2.0740   -0.7680 H         1 MRI1        0.0000
     12 O3          1.8770    1.9860    1.2760 O.3       1 MRI1        0.0000
     13 HO3         2.4720    2.7500    1.2880 H         1 MRI1        0.0000
     14 C4          3.5760    1.5420   -0.3860 C.3       1 MRI1        0.0000
     15 H4          3.6900    1.2210   -1.4500 H         1 MRI1        0.0000
     16 O4          4.0210    2.9040   -0.3030 O.3       1 MRI1        0.0000
     17 HO4         4.9850    2.8140   -0.2740 H         1 MRI1        0.0000
     18 C5          4.4810    0.6770    0.4720 C.3       1 MRI1        0.0000
     19 H51         4.1180   -0.3740    0.4940 H         1 MRI1        0.0000
     20 H52         4.4980    1.0560    1.5200 H         1 MRI1        0.0000
     21 O5          5.8120    0.6870   -0.0610 O.3       1 MRI1        0.0000
     22 HO5         5.9300   -0.1290   -0.5610 H         1 MRI1        0.0000
@<TRIPOS>BOND
     1    9    8 1 
     2   15   14 1 
     3    8    6 1 
     4    4    5 1 
     5    4    1 1 
     6   11   10 1 
     7   22   21 1 
     8   14   16 1 
     9   14   10 1 
    10   14   18 1 
    11   16   17 1 
    12    6   10 1 
    13    6    1 1 
    14    6    7 1 
    15   21   18 1 
    16   10   12 1 
    17    1    2 1 
    18    1    3 1 
    19   18   19 1 
    20   18   20 1 
    21   12   13 1 
