@<TRIPOS>MOLECULE
C:\Users\Praveer\PycharmProjects\pdb_to_mol2_converter\data\pdb\msam.pdb
   10     9     0     0     0
SMALL
GASTEIGER

@<TRIPOS>ATOM
      1 C3         -0.0190   -0.0550   -0.0020 C.3       1 MSA1        0.0000
      2 H31        -0.2830   -1.1320   -0.0260 H         1 MSA1        0.0000
      3 H32        -0.4170    0.4550   -0.9030 H         1 MSA1        0.0000
      4 H33        -0.4200    0.4160    0.9170 H         1 MSA1        0.0000
      5 S1          1.7460    0.0860    0.0040 S.O2      1 MSA1        0.0000
      6 O11         2.2520   -0.3660   -1.2560 O.2       1 MSA1        0.0000
      7 O12         2.2470   -0.4160    1.2470 O.2       1 MSA1        0.0000
      8 N2          1.9380    1.7000    0.0360 N.3       1 MSA1        0.0000
      9 H21         2.4380    1.9590    0.8810 H         1 MSA1        0.0000
     10 H22         2.4400    1.9920   -0.7960 H         1 MSA1        0.0000
@<TRIPOS>BOND
     1    6    5 2 
     2    3    1 1 
     3   10    8 1 
     4    2    1 1 
     5    1    5 1 
     6    1    4 1 
     7    5    8 1 
     8    5    7 2 
     9    8    9 1 
