@<TRIPOS>MOLECULE
C:\Users\Praveer\PycharmProjects\pdb_to_mol2_converter\data\pdb\msmt.pdb
   11    10     0     0     0
SMALL
GASTEIGER

@<TRIPOS>ATOM
      1 S1          1.7340   -0.0310    0.0160 S.3       1 MSM1        0.0000
      2 N2          2.1010    1.5710   -0.0170 N.3       1 MSM1        0.0000
      3 H21         1.7860    2.0030   -0.8800 H         1 MSM1        0.0000
      4 H22         1.7060    2.0580    0.7810 H         1 MSM1        0.0000
      5 O11         2.1090   -0.5700    1.2940 O.3       1 MSM1        0.0000
      6 O12         2.1900   -0.6380   -1.2020 O.3       1 MSM1        0.0000
      7 O3          0.1430    0.0540   -0.0370 O.3       1 MSM1        0.0000
      8 C4         -0.5170   -1.2210   -0.0140 C.3       1 MSM1        0.0000
      9 H41        -0.2430   -1.7870    0.9040 H         1 MSM1        0.0000
     10 H42        -0.2360   -1.8220   -0.9070 H         1 MSM1        0.0000
     11 H43        -1.6170   -1.0720   -0.0200 H         1 MSM1        0.0000
@<TRIPOS>BOND
     1    6    1 1 
     2   10    8 1 
     3    3    2 1 
     4    7    8 1 
     5    7    1 1 
     6   11    8 1 
     7    2    1 1 
     8    2    4 1 
     9    8    9 1 
    10    1    5 1 
