@<TRIPOS>MOLECULE
C:\Users\Praveer\PycharmProjects\pdb_to_mol2_converter\data\pdb\msna.pdb
    8     7     0     0     0
SMALL
GASTEIGER

@<TRIPOS>ATOM
      1 S           1.8340    1.7160    0.0010 S.3       1 MSN1        0.0000
      2 O1          3.2620    1.4800    0.0010 O.3       1 MSN1        0.0000
      3 O2          1.3270    2.3140    1.2170 O.3       1 MSN1        0.0000
      4 O3          1.3270    2.3140   -1.2160 O.3       1 MSN1        0.0000
      5 C1          1.1200    0.0580    0.0010 C.3       1 MSN1        0.0000
      6 H11         1.4550   -0.4830    0.9060 H         1 MSN1        0.0000
      7 H12         1.4550   -0.4830   -0.9050 H         1 MSN1        0.0000
      8 H13         0.0160    0.1370    0.0010 H         1 MSN1        0.0000
@<TRIPOS>BOND
     1    4    1 1 
     2    7    5 1 
     3    1    2 1 
     4    1    5 1 
     5    1    3 1 
     6    5    8 1 
     7    5    6 1 
