@<TRIPOS>MOLECULE
C:\Users\Praveer\PycharmProjects\pdb_to_mol2_converter\data\pdb\mso4.pdb
    9     8     0     0     0
SMALL
GASTEIGER

@<TRIPOS>ATOM
      1 S          -0.4040    0.0000   -0.0450 S.3       1 MSO1        0.0000
      2 OS1         0.9210    0.0000    0.7990 O.3       1 MSO1        0.0000
      3 OS2        -1.4460    0.0000    0.9660 O.3       1 MSO1        0.0000
      4 OS3        -0.3630   -1.2200   -0.8340 O.2       1 MSO1        0.0000
      5 OS4        -0.3630    1.2200   -0.8340 O.2       1 MSO1        0.0000
      6 C1          2.1250    0.0000    0.0330 C.3       1 MSO1        0.0000
      7 H11         2.9960    0.0000    0.7210 H         1 MSO1        0.0000
      8 H12         2.1970   -0.9080   -0.6090 H         1 MSO1        0.0000
      9 H13         2.1970    0.9080   -0.6090 H         1 MSO1        0.0000
@<TRIPOS>BOND
     1    4    1 2 
     2    5    1 2 
     3    8    6 1 
     4    9    6 1 
     5    1    2 1 
     6    1    3 1 
     7    6    7 1 
     8    6    2 1 
