@<TRIPOS>MOLECULE
C:\Users\Praveer\PycharmProjects\pdb_to_mol2_converter\data\pdb\mt2a.pdb
   17    16     0     0     0
SMALL
GASTEIGER

@<TRIPOS>ATOM
      1 C1         -0.0360    0.0020   -0.0620 C.3       1 MT21        0.0000
      2 H11        -0.5150    0.6650   -0.8160 H         1 MT21        0.0000
      3 H12        -0.3620    0.3420    0.9450 H         1 MT21        0.0000
      4 H13        -0.4310   -1.0240   -0.2210 H         1 MT21        0.0000
      5 S2          1.7840    0.0200   -0.2000 S.3       1 MT21        0.0000
      6 C3          2.0650    1.7610    0.0740 C.2       1 MT21        0.0000
      7 N4          3.3740    2.0560    0.4470 N.pl3     1 MT21        0.0000
      8 H41         4.0530    1.3690    0.1580 H         1 MT21        0.0000
      9 H42         3.6740    2.9860    0.2190 H         1 MT21        0.0000
     10 N5          1.1010    2.5980   -0.0920 N.2       1 MT21        0.0000
     11 C6          1.3880    3.9950    0.1950 C.3       1 MT21        0.0000
     12 H61         2.2270    4.3550   -0.4460 H         1 MT21        0.0000
     13 H62         1.6700    4.1010    1.2710 H         1 MT21        0.0000
     14 C7          0.1610    4.8610   -0.0910 C.3       1 MT21        0.0000
     15 H71        -0.7040    4.5220    0.5180 H         1 MT21        0.0000
     16 H72        -0.1220    4.7870   -1.1630 H         1 MT21        0.0000
     17 H73         0.3710    5.9260    0.1440 H         1 MT21        0.0000
@<TRIPOS>BOND
     1   16   14 1 
     2    2    1 1 
     3   12   11 1 
     4    4    1 1 
     5    5    1 1 
     6    5    6 1 
     7   10    6 2 
     8   10   11 1 
     9   14   17 1 
    10   14   11 1 
    11   14   15 1 
    12    1    3 1 
    13    6    7 1 
    14    8    7 1 
    15   11   13 1 
    16    9    7 1 
