@<TRIPOS>MOLECULE
C:\Users\Praveer\PycharmProjects\pdb_to_mol2_converter\data\pdb\mtdo.pdb
   11    11     0     0     0
SMALL
GASTEIGER

@<TRIPOS>ATOM
      1 S1         -0.6230    1.6340   -0.0000 S.3       1 MTD1        0.0000
      2 C2          1.0070    2.3200   -0.0000 C.2       1 MTD1        0.0000
      3 O2          1.2870    3.5160   -0.0000 O.2       1 MTD1        0.0000
      4 N3          1.9190    1.3080    0.0000 N.am      1 MTD1        0.0000
      5 H3          2.8990    1.5330    0.0000 H         1 MTD1        0.0000
      6 C4          1.5120    0.0050   -0.0000 C.2       1 MTD1        0.0000
      7 O4          2.2630   -0.9720    0.0000 O.2       1 MTD1        0.0000
      8 C5          0.0130   -0.0150   -0.0000 C.2       1 MTD1        0.0000
      9 C6         -0.6850   -1.1640   -0.0000 C.2       1 MTD1        0.0000
     10 H61        -1.7830   -1.1510   -0.0000 H         1 MTD1        0.0000
     11 H62        -0.1480   -2.1270   -0.0000 H         1 MTD1        0.0000
@<TRIPOS>BOND
     1    1    2 1 
     2    1    8 1 
     3    2    3 2 
     4    2    4 am
     5    4    5 1 
     6    4    6 am
     7    6    7 2 
     8    6    8 1 
     9    8    9 2 
    10    9   10 1 
    11    9   11 1 
