@<TRIPOS>MOLECULE
C:\Users\Praveer\PycharmProjects\pdb_to_mol2_converter\data\pdb\mxylol.pdb
   22    21     0     0     0
SMALL
GASTEIGER

@<TRIPOS>ATOM
      1 C1          0.0330   -0.0050   -0.0490 C.3       1 MXY1        0.0000
      2 H11        -0.4090    0.7140    0.6770 H         1 MXY1        0.0000
      3 H12        -0.3180    0.2740   -1.0700 H         1 MXY1        0.0000
      4 O1         -0.4140   -1.3250    0.2850 O.3       1 MXY1        0.0000
      5 HO1        -1.3780   -1.3240    0.2780 H         1 MXY1        0.0000
      6 C2          1.5460    0.0480    0.0350 C.3       1 MXY1        0.0000
      7 H2          1.8540   -0.4490    0.9850 H         1 MXY1        0.0000
      8 O2          2.0980   -0.7000   -1.0570 O.3       1 MXY1        0.0000
      9 HO2         1.6300   -1.5460   -1.0150 H         1 MXY1        0.0000
     10 C3          2.0540    1.4870    0.0510 C.3       1 MXY1        0.0000
     11 H3          1.4950    2.0670    0.8210 H         1 MXY1        0.0000
     12 O3          1.7680    2.0740   -1.2310 O.3       1 MXY1        0.0000
     13 HO3         1.8990    1.3330   -1.8420 H         1 MXY1        0.0000
     14 C4          3.5480    1.6060    0.3780 C.3       1 MXY1        0.0000
     15 H4          4.1020    0.8660   -0.2480 H         1 MXY1        0.0000
     16 O4          4.0330    2.9190    0.0530 O.3       1 MXY1        0.0000
     17 HO4         3.4060    3.2220   -0.6210 H         1 MXY1        0.0000
     18 C5          3.8420    1.3620    1.8450 C.3       1 MXY1        0.0000
     19 H51         3.3660    0.4270    2.2070 H         1 MXY1        0.0000
     20 H52         3.4650    2.2040    2.4700 H         1 MXY1        0.0000
     21 O5          5.2520    1.2230    2.0280 O.3       1 MXY1        0.0000
     22 HO5         5.6260    1.9780    1.5530 H         1 MXY1        0.0000
@<TRIPOS>BOND
     1   13   12 1 
     2   12   10 1 
     3    3    1 1 
     4    8    9 1 
     5    8    6 1 
     6   17   16 1 
     7   15   14 1 
     8    1    6 1 
     9    1    4 1 
    10    1    2 1 
    11    6   10 1 
    12    6    7 1 
    13   10   14 1 
    14   10   11 1 
    15   16   14 1 
    16    5    4 1 
    17   14   18 1 
    18   22   21 1 
    19   18   21 1 
    20   18   19 1 
    21   18   20 1 
