@<TRIPOS>MOLECULE
C:\Users\Praveer\PycharmProjects\pdb_to_mol2_converter\data\pdb\mxyl.pdb
   18    18     0     0     0
SMALL
GASTEIGER

@<TRIPOS>ATOM
      1 CG          0.1070   -0.0060    0.0010 C.ar      1 MXY1        0.0000
      2 HG         -0.4280   -0.9440    0.0040 H         1 MXY1        0.0000
      3 CD1         1.5080    0.0020    0.0000 C.ar      1 MXY1        0.0000
      4 HD1         2.0550   -0.9290    0.0010 H         1 MXY1        0.0000
      5 CD2        -0.6070    1.2010   -0.0040 C.ar      1 MXY1        0.0000
      6 CE1         2.1990    1.2220   -0.0010 C.ar      1 MXY1        0.0000
      7 HE1         3.2780    1.2320   -0.0030 H         1 MXY1        0.0000
      8 CE2         0.0900    2.4180   -0.0000 C.ar      1 MXY1        0.0000
      9 HE2        -0.4560    3.3490   -0.0010 H         1 MXY1        0.0000
     10 CZ          1.4930    2.4340    0.0040 C.ar      1 MXY1        0.0000
     11 C1          2.2310    3.7370   -0.0060 C.3       1 MXY1        0.0000
     12 H11         2.3970    4.0420   -1.0610 H         1 MXY1        0.0000
     13 H12         3.2070    3.6170    0.5110 H         1 MXY1        0.0000
     14 H13         1.6310    4.5100    0.5210 H         1 MXY1        0.0000
     15 C2         -2.1040    1.1920    0.0060 C.3       1 MXY1        0.0000
     16 H21        -2.4520    1.1920    1.0610 H         1 MXY1        0.0000
     17 H22        -2.4750    0.2820   -0.5140 H         1 MXY1        0.0000
     18 H23        -2.4870    2.0940   -0.5180 H         1 MXY1        0.0000
@<TRIPOS>BOND
     1   12   11 1 
     2   18   15 1 
     3   17   15 1 
     4   11   10 1 
     5   11   13 1 
     6   11   14 1 
     7    5    8 ar
     8    5    1 ar
     9    5   15 1 
    10    7    6 1 
    11    6    3 ar
    12    6   10 ar
    13    9    8 1 
    14    3    1 ar
    15    3    4 1 
    16    8   10 ar
    17    1    2 1 
    18   15   16 1 
