@<TRIPOS>MOLECULE
C:\Users\Praveer\PycharmProjects\pdb_to_mol2_converter\data\pdb\myr.pdb
   43    42     0     0     0
SMALL
GASTEIGER

@<TRIPOS>ATOM
      1 O1          0.0170   -0.0980    0.1820 O.co2     1 MYR1        0.0000
      2 O2          2.0660   -0.9270   -0.0700 O.co2     1 MYR1        0.0000
      3 C1          1.2610    0.0330    0.0370 C.2       1 MYR1        0.0000
      4 C2          1.7970    1.4650   -0.0080 C.3       1 MYR1        0.0000
      5 H2R         1.5010    1.9560    0.9410 H         1 MYR1        0.0000
      6 H2S         1.2890    1.9790   -0.8480 H         1 MYR1        0.0000
      7 C3          3.3300    1.5400   -0.1890 C.3       1 MYR1        0.0000
      8 H3R         3.6050    1.0070   -1.1270 H         1 MYR1        0.0000
      9 H3S         3.8200    1.0030    0.6530 H         1 MYR1        0.0000
     10 C4          3.8430    2.9850   -0.2520 C.3       1 MYR1        0.0000
     11 H4R         3.5770    3.5030    0.6960 H         1 MYR1        0.0000
     12 H4S         3.3230    3.5100   -1.0840 H         1 MYR1        0.0000
     13 C5          5.3590    3.0630   -0.4720 C.3       1 MYR1        0.0000
     14 H5R         5.6110    2.5160   -1.4080 H         1 MYR1        0.0000
     15 H5S         5.8740    2.5460    0.3690 H         1 MYR1        0.0000
     16 C6          5.8720    4.5050   -0.5770 C.3       1 MYR1        0.0000
     17 H6R         5.6440    5.0430    0.3700 H         1 MYR1        0.0000
     18 H6S         5.3270    5.0210   -1.4000 H         1 MYR1        0.0000
     19 C7          7.3800    4.5760   -0.8540 C.3       1 MYR1        0.0000
     20 H7R         7.6000    4.0170   -1.7910 H         1 MYR1        0.0000
     21 H7S         7.9270    4.0750   -0.0250 H         1 MYR1        0.0000
     22 C8          7.8890    6.0170   -1.0010 C.3       1 MYR1        0.0000
     23 H8R         7.6910    6.5730   -0.0570 H         1 MYR1        0.0000
     24 H8S         7.3210    6.5190   -1.8160 H         1 MYR1        0.0000
     25 C9          9.3880    6.0820   -1.3230 C.3       1 MYR1        0.0000
     26 H9R         9.5820    5.5130   -2.2600 H         1 MYR1        0.0000
     27 H9S         9.9600    5.5900   -0.5040 H         1 MYR1        0.0000
     28 C10         9.8950    7.5200   -1.4980 C.3       1 MYR1        0.0000
     29 H10R        9.7180    8.0880   -0.5570 H         1 MYR1        0.0000
     30 H10S        9.3120    8.0150   -2.3070 H         1 MYR1        0.0000
     31 C11        11.3880    7.5800   -1.8500 C.3       1 MYR1        0.0000
     32 H11R       11.5630    7.0060   -2.7880 H         1 MYR1        0.0000
     33 H11S       11.9740    7.0910   -1.0400 H         1 MYR1        0.0000
     34 C12        11.8940    9.0160   -2.0420 C.3       1 MYR1        0.0000
     35 H12R       11.7280    9.5900   -1.1020 H         1 MYR1        0.0000
     36 H12S       11.3030    9.5070   -2.8470 H         1 MYR1        0.0000
     37 C13        13.3830    9.0750   -2.4080 C.3       1 MYR1        0.0000
     38 H13R       13.5440    8.4930   -3.3450 H         1 MYR1        0.0000
     39 H13S       13.9710    8.5790   -1.6030 H         1 MYR1        0.0000
     40 C14        13.9030   10.5010   -2.6060 C.3       1 MYR1        0.0000
     41 H14R       13.7750   11.0940   -1.6750 H         1 MYR1        0.0000
     42 H14S       13.3450   11.0080   -3.4230 H         1 MYR1        0.0000
     43 H14T       14.9820   10.4900   -2.8710 H         1 MYR1        0.0000
@<TRIPOS>BOND
     1   42   40 1 
     2   38   37 1 
     3   43   40 1 
     4   36   34 1 
     5   32   31 1 
     6   40   37 1 
     7   40   41 1 
     8   37   34 1 
     9   37   39 1 
    10   30   28 1 
    11   26   25 1 
    12   34   31 1 
    13   34   35 1 
    14   31   28 1 
    15   31   33 1 
    16   24   22 1 
    17   20   19 1 
    18   28   25 1 
    19   28   29 1 
    20   14   13 1 
    21   18   16 1 
    22   25   22 1 
    23   25   27 1 
    24    8    7 1 
    25   12   10 1 
    26   22   19 1 
    27   22   23 1 
    28   19   16 1 
    29   19   21 1 
    30    6    4 1 
    31   16   13 1 
    32   16   17 1 
    33   13   10 1 
    34   13   15 1 
    35   10    7 1 
    36   10   11 1 
    37    7    4 1 
    38    7    9 1 
    39    2    3 ar
    40    4    3 1 
    41    4    5 1 
    42    3    1 ar
