@<TRIPOS>MOLECULE
C:\Users\Praveer\PycharmProjects\pdb_to_mol2_converter\data\pdb\myro.pdb
   41    40     0     0     0
SMALL
GASTEIGER

@<TRIPOS>ATOM
      1 O1          0.0250   -0.1060    0.1120 O.co2     1 MYR1        0.0000
      2 O2          2.0970   -0.9140    0.0780 O.co2     1 MYR1        0.0000
      3 C1          1.2750    0.0370    0.0630 C.2       1 MYR1        0.0000
      4 C2          1.7980    1.4720   -0.0210 C.3       1 MYR1        0.0000
      5 H2R         1.4140    2.0150    0.8670 H         1 MYR1        0.0000
      6 H2S         1.3610    1.9280   -0.9320 H         1 MYR1        0.0000
      7 C3          3.3400    1.5580   -0.0710 C.3       1 MYR1        0.0000
      8 H3R         3.7030    0.9710   -0.9450 H         1 MYR1        0.0000
      9 H3S         3.7590    1.0820    0.8440 H         1 MYR1        0.0000
     10 C4          3.8450    3.0020   -0.1810 C.3       1 MYR1        0.0000
     11 H4R         3.4790    3.5810    0.6960 H         1 MYR1        0.0000
     12 H4S         3.4090    3.4600   -1.0970 H         1 MYR1        0.0000
     13 C5          5.3760    3.0890   -0.2500 C.3       1 MYR1        0.0000
     14 H5R         5.7290    2.4620   -1.0990 H         1 MYR1        0.0000
     15 H5S         5.8050    2.6640    0.6840 H         1 MYR1        0.0000
     16 C6          5.8800    4.5250   -0.4420 C.3       1 MYR1        0.0000
     17 H6R         5.5320    5.1530    0.4090 H         1 MYR1        0.0000
     18 H6S         5.4330    4.9400   -1.3740 H         1 MYR1        0.0000
     19 C7          7.4100    4.6090   -0.5400 C.3       1 MYR1        0.0000
     20 H7R         7.7490    3.9310   -1.3560 H         1 MYR1        0.0000
     21 H7S         7.8490    4.2390    0.4150 H         1 MYR1        0.0000
     22 C8          7.9020    6.0420   -0.8190 C.3       1 MYR1        0.0000
     23 H8R         7.5030    6.6980   -0.0130 H         1 MYR1        0.0000
     24 H8S         7.4480    6.3890   -1.7740 H         1 MYR1        0.0000
     25 C9          9.4070    6.1030   -0.9120 C.2       1 MYR1        0.0000
     26 H9R         9.8520    5.3820   -1.6150 H         1 MYR1        0.0000
     27 C10        10.2250    6.9090   -0.2090 C.2       1 MYR1        0.0000
     28 H10R       11.3110    6.8290   -0.3680 H         1 MYR1        0.0000
     29 C11         9.8050    7.9540    0.7960 C.3       1 MYR1        0.0000
     30 H11R        8.7850    8.3430    0.5790 H         1 MYR1        0.0000
     31 H11S       10.4910    8.8290    0.7410 H         1 MYR1        0.0000
     32 C12         9.8160    7.4070    2.2350 C.3       1 MYR1        0.0000
     33 H12R       10.8360    7.0430    2.4920 H         1 MYR1        0.0000
     34 H12S        9.1190    6.5410    2.3060 H         1 MYR1        0.0000
     35 C13         9.3940    8.4630    3.2660 C.3       1 MYR1        0.0000
     36 H13R        8.3760    8.8310    3.0030 H         1 MYR1        0.0000
     37 H13S       10.0910    9.3300    3.1980 H         1 MYR1        0.0000
     38 C14         9.3840    7.9350    4.7030 C.3       1 MYR1        0.0000
     39 H14R       10.3960    7.5830    4.9950 H         1 MYR1        0.0000
     40 H14S        8.6750    7.0850    4.7980 H         1 MYR1        0.0000
     41 H14T        9.0710    8.7340    5.4100 H         1 MYR1        0.0000
@<TRIPOS>BOND
     1   24   22 1 
     2   26   25 1 
     3   18   16 1 
     4   20   19 1 
     5   14   13 1 
     6   12   10 1 
     7    8    7 1 
     8    6    4 1 
     9   25   22 1 
    10   25   27 2 
    11   22   19 1 
    12   22   23 1 
    13   19   16 1 
    14   19   21 1 
    15   16   13 1 
    16   16   17 1 
    17   28   27 1 
    18   13   10 1 
    19   13   15 1 
    20   27   29 1 
    21   10    7 1 
    22   10   11 1 
    23    7    4 1 
    24    7    9 1 
    25    4    3 1 
    26    4    5 1 
    27    3    2 ar
    28    3    1 ar
    29   30   29 1 
    30   31   29 1 
    31   29   32 1 
    32   32   34 1 
    33   32   33 1 
    34   32   35 1 
    35   36   35 1 
    36   37   35 1 
    37   35   38 1 
    38   38   40 1 
    39   38   39 1 
    40   38   41 1 
