@<TRIPOS>MOLECULE
C:\Users\Praveer\PycharmProjects\pdb_to_mol2_converter\data\pdb\myrop.pdb
   42    41     0     0     0
SMALL
GASTEIGER

@<TRIPOS>ATOM
      1 H1          0.0210   -0.0630   -0.2080 H         1 MYR1        0.0000
      2 O1          0.9680   -0.0600   -0.0740 O.3       1 MYR1        0.0000
      3 O2          0.5610    2.1480   -0.1760 O.2       1 MYR1        0.0000
      4 C1          1.3740    1.2530   -0.0440 C.2       1 MYR1        0.0000
      5 C2          2.8770    1.3960    0.1640 C.3       1 MYR1        0.0000
      6 H2R         3.3970    0.8660   -0.6610 H         1 MYR1        0.0000
      7 H2S         3.1440    0.9060    1.1240 H         1 MYR1        0.0000
      8 C3          3.3160    2.8760    0.1950 C.3       1 MYR1        0.0000
      9 H3R         2.7780    3.4090    1.0120 H         1 MYR1        0.0000
     10 H3S         3.0430    3.3710   -0.7650 H         1 MYR1        0.0000
     11 C4          4.8260    3.0300    0.4200 C.3       1 MYR1        0.0000
     12 H4R         5.3770    2.5210   -0.4020 H         1 MYR1        0.0000
     13 H4S         5.1030    2.5270    1.3750 H         1 MYR1        0.0000
     14 C5          5.2650    4.4980    0.4870 C.3       1 MYR1        0.0000
     15 H5R         4.6790    5.0160    1.2790 H         1 MYR1        0.0000
     16 H5S         5.0350    4.9960   -0.4820 H         1 MYR1        0.0000
     17 C6          6.7600    4.6530    0.7950 C.3       1 MYR1        0.0000
     18 H6R         7.3550    4.1500    0.0010 H         1 MYR1        0.0000
     19 H6S         6.9840    4.1440    1.7600 H         1 MYR1        0.0000
     20 C7          7.1930    6.1220    0.8960 C.3       1 MYR1        0.0000
     21 H7R         6.5510    6.6320    1.6500 H         1 MYR1        0.0000
     22 H7S         7.0180    6.6140   -0.0880 H         1 MYR1        0.0000
     23 C8          8.6730    6.2680    1.2950 C.3       1 MYR1        0.0000
     24 H8R         9.2810    5.7000    0.5550 H         1 MYR1        0.0000
     25 H8S         8.8210    5.7770    2.2820 H         1 MYR1        0.0000
     26 C9          9.0820    7.7190    1.3750 C.2       1 MYR1        0.0000
     27 H9R         8.4370    8.3420    2.0130 H         1 MYR1        0.0000
     28 C10        10.1100    8.3020    0.7290 C.2       1 MYR1        0.0000
     29 H10R       10.2800    9.3810    0.8690 H         1 MYR1        0.0000
     30 C11        11.0970    7.6200   -0.1870 C.3       1 MYR1        0.0000
     31 H11R       11.2080    6.5410    0.0610 H         1 MYR1        0.0000
     32 H11S       12.1050    8.0740   -0.0620 H         1 MYR1        0.0000
     33 C12        10.6850    7.7340   -1.6660 C.3       1 MYR1        0.0000
     34 H12R       10.5890    8.8070   -1.9490 H         1 MYR1        0.0000
     35 H12S        9.6890    7.2560   -1.8100 H         1 MYR1        0.0000
     36 C13        11.6940    7.0640   -2.6080 C.3       1 MYR1        0.0000
     37 H13R       11.8000    5.9950   -2.3140 H         1 MYR1        0.0000
     38 H13S       12.6880    7.5480   -2.4690 H         1 MYR1        0.0000
     39 C14        11.2960    7.1430   -4.0840 C.3       1 MYR1        0.0000
     40 H14R       11.2100    8.2020   -4.4080 H         1 MYR1        0.0000
     41 H14S       10.3160    6.6450   -4.2480 H         1 MYR1        0.0000
     42 H14T       12.0560    6.6410   -4.7200 H         1 MYR1        0.0000
@<TRIPOS>BOND
     1   42   39 1 
     2   40   39 1 
     3   41   39 1 
     4   39   36 1 
     5   36   38 1 
     6   36   37 1 
     7   36   33 1 
     8   34   33 1 
     9   35   33 1 
    10   33   30 1 
    11   10    8 1 
    12    6    5 1 
    13   16   14 1 
    14   12   11 1 
    15    1    2 1 
    16   30   32 1 
    17   30   31 1 
    18   30   28 1 
    19    3    4 2 
    20   22   20 1 
    21    2    4 1 
    22    4    5 1 
    23   18   17 1 
    24    5    8 1 
    25    5    7 1 
    26    8   11 1 
    27    8    9 1 
    28   11   14 1 
    29   11   13 1 
    30   14   17 1 
    31   14   15 1 
    32   24   23 1 
    33   28   29 1 
    34   28   26 2 
    35   17   20 1 
    36   17   19 1 
    37   20   23 1 
    38   20   21 1 
    39   23   26 1 
    40   23   25 1 
    41   26   27 1 
