@<TRIPOS>MOLECULE
C:\Users\Praveer\PycharmProjects\pdb_to_mol2_converter\data\pdb\myrp.pdb
   44    43     0     0     0
SMALL
GASTEIGER

@<TRIPOS>ATOM
      1 H1          0.0080   -0.0700   -0.1840 H         1 MYR1        0.0000
      2 O1          0.9600   -0.0670   -0.1060 O.3       1 MYR1        0.0000
      3 O2          0.5320    2.1370   -0.0190 O.2       1 MYR1        0.0000
      4 C1          1.3580    1.2450    0.0010 C.2       1 MYR1        0.0000
      5 C2          2.8690    1.3900    0.1380 C.3       1 MYR1        0.0000
      6 H2R         3.3460    0.9620   -0.7690 H         1 MYR1        0.0000
      7 H2S         3.1970    0.8030    1.0210 H         1 MYR1        0.0000
      8 C3          3.2910    2.8650    0.3060 C.3       1 MYR1        0.0000
      9 H3R         2.7850    3.2990    1.1990 H         1 MYR1        0.0000
     10 H3S         2.9680    3.4550   -0.5820 H         1 MYR1        0.0000
     11 C4          4.8080    3.0200    0.4810 C.3       1 MYR1        0.0000
     12 H4R         5.3260    2.6210   -0.4190 H         1 MYR1        0.0000
     13 H4S         5.1360    2.4160    1.3570 H         1 MYR1        0.0000
     14 C5          5.2270    4.4800    0.7000 C.3       1 MYR1        0.0000
     15 H5R         4.6890    4.8810    1.5890 H         1 MYR1        0.0000
     16 H5S         4.9220    5.0870   -0.1810 H         1 MYR1        0.0000
     17 C6          6.7380    4.6370    0.9230 C.3       1 MYR1        0.0000
     18 H6R         7.2820    4.2660    0.0260 H         1 MYR1        0.0000
     19 H6S         7.0440    4.0070    1.7890 H         1 MYR1        0.0000
     20 C7          7.1440    6.0910    1.1980 C.3       1 MYR1        0.0000
     21 H7R         6.5810    6.4610    2.0840 H         1 MYR1        0.0000
     22 H7S         6.8560    6.7230    0.3270 H         1 MYR1        0.0000
     23 C8          8.6470    6.2500    1.4610 C.3       1 MYR1        0.0000
     24 H8R         9.2150    5.9030    0.5680 H         1 MYR1        0.0000
     25 H8S         8.9360    5.6000    2.3180 H         1 MYR1        0.0000
     26 C9          9.0400    7.6990    1.7800 C.3       1 MYR1        0.0000
     27 H9R         8.4610    8.0440    2.6660 H         1 MYR1        0.0000
     28 H9S         8.7630    8.3500    0.9210 H         1 MYR1        0.0000
     29 C10        10.5380    7.8580    2.0710 C.3       1 MYR1        0.0000
     30 H10R       11.1210    7.5290    1.1820 H         1 MYR1        0.0000
     31 H10S       10.8160    7.1950    2.9220 H         1 MYR1        0.0000
     32 C11        10.9200    9.3030    2.4190 C.3       1 MYR1        0.0000
     33 H11R       10.3300    9.6310    3.3050 H         1 MYR1        0.0000
     34 H11S       10.6490    9.9670    1.5680 H         1 MYR1        0.0000
     35 C12        12.4150    9.4640    2.7260 C.3       1 MYR1        0.0000
     36 H12R       13.0060    9.1440    1.8390 H         1 MYR1        0.0000
     37 H12S       12.6870    8.7940    3.5730 H         1 MYR1        0.0000
     38 C13        12.7920   10.9060    3.0880 C.3       1 MYR1        0.0000
     39 H13R       12.1920   11.2210    3.9720 H         1 MYR1        0.0000
     40 H13S       12.5140   11.5730    2.2410 H         1 MYR1        0.0000
     41 C14        14.2800   11.0830    3.4020 C.3       1 MYR1        0.0000
     42 H14R       14.8990   10.7970    2.5240 H         1 MYR1        0.0000
     43 H14S       14.5750   10.4430    4.2610 H         1 MYR1        0.0000
     44 H14T       14.5020   12.1410    3.6590 H         1 MYR1        0.0000
@<TRIPOS>BOND
     1    6    5 1 
     2   10    8 1 
     3   12   11 1 
     4    1    2 1 
     5   16   14 1 
     6    2    4 1 
     7    3    4 2 
     8    4    5 1 
     9   18   17 1 
    10    5    8 1 
    11    5    7 1 
    12    8   11 1 
    13    8    9 1 
    14   22   20 1 
    15   11   14 1 
    16   11   13 1 
    17   24   23 1 
    18   14   17 1 
    19   14   15 1 
    20   28   26 1 
    21   17   20 1 
    22   17   19 1 
    23   30   29 1 
    24   20   23 1 
    25   20   21 1 
    26   23   26 1 
    27   23   25 1 
    28   34   32 1 
    29   26   29 1 
    30   26   27 1 
    31   36   35 1 
    32   29   32 1 
    33   29   31 1 
    34   40   38 1 
    35   32   35 1 
    36   32   33 1 
    37   42   41 1 
    38   35   38 1 
    39   35   37 1 
    40   38   41 1 
    41   38   39 1 
    42   41   44 1 
    43   41   43 1 
