@<TRIPOS>MOLECULE
C:\Users\Praveer\PycharmProjects\pdb_to_mol2_converter\data\pdb\nact.pdb
   18    17     0     0     0
SMALL
GASTEIGER

@<TRIPOS>ATOM
      1 S           2.1660    1.6900   -0.0000 S.3       1 NAC1        0.0000
      2 O1          3.5890    1.4220   -0.0000 O.3       1 NAC1        0.0000
      3 O2          1.6710    2.2940    1.2180 O.3       1 NAC1        0.0000
      4 O3          1.6710    2.2940   -1.2190 O.3       1 NAC1        0.0000
      5 C1          1.4380    0.0490   -0.0000 C.3       1 NAC1        0.0000
      6 H11         1.8060   -0.4710    0.9050 H         1 NAC1        0.0000
      7 H12         1.8060   -0.4710   -0.9050 H         1 NAC1        0.0000
      8 C2         -0.0930    0.1300   -0.0000 C.3       1 NAC1        0.0000
      9 H21        -0.4460    0.6860   -0.9020 H         1 NAC1        0.0000
     10 H22        -0.4460    0.6870    0.9000 H         1 NAC1        0.0000
     11 N          -0.6370   -1.1980    0.0010 N.am      1 NAC1        0.0000
     12 H           0.0330   -1.9280    0.0020 H         1 NAC1        0.0000
     13 C          -1.9480   -1.4620    0.0010 C.2       1 NAC1        0.0000
     14 O          -2.8110   -0.5950    0.0000 O.2       1 NAC1        0.0000
     15 C3         -2.3190   -2.8970    0.0030 C.3       1 NAC1        0.0000
     16 H31        -1.9160   -3.3940    0.9100 H         1 NAC1        0.0000
     17 H32        -1.9170   -3.3960   -0.9040 H         1 NAC1        0.0000
     18 H33        -3.4270   -2.9890    0.0030 H         1 NAC1        0.0000
@<TRIPOS>BOND
     1    4    1 1 
     2    7    5 1 
     3   17   15 1 
     4    9    8 1 
     5    1    2 1 
     6    1    5 1 
     7    1    3 1 
     8    5    8 1 
     9    5    6 1 
    10    8   11 1 
    11    8   10 1 
    12   14   13 2 
    13   11   13 am
    14   11   12 1 
    15   13   15 1 
    16   15   18 1 
    17   15   16 1 
