@<TRIPOS>MOLECULE
C:\Users\Praveer\PycharmProjects\pdb_to_mol2_converter\data\pdb\nad.pdb
   70    74     0     0     0
SMALL
GASTEIGER

@<TRIPOS>ATOM
      1 C4B        -4.5170   -2.4550    0.0130 C.3       1 NAD1        0.0000
      2 H4B        -3.9910   -3.1790    0.6740 H         1 NAD1        0.0000
      3 O4B        -5.2260   -1.4830    0.7780 O.3       1 NAD1        0.0000
      4 C1B        -6.5580   -1.4810    0.2940 C.3       1 NAD1        0.0000
      5 H1B        -7.1590   -2.1250    0.9770 H         1 NAD1        0.0000
      6 C5A        -8.4120    1.6130    0.6080 C.ar      1 NAD1        0.0000
      7 N7A        -7.4260    2.0560   -0.1970 N.ar      1 NAD1        0.0000
      8 C8A        -6.6420    0.9590   -0.3910 C.ar      1 NAD1        0.0000
      9 H8A        -5.7470    0.9600   -0.9990 H         1 NAD1        0.0000
     10 N9A        -7.1190   -0.1290    0.2670 N.ar      1 NAD1        0.0000
     11 N1A       -10.3650    1.5810    1.9310 N.2       1 NAD1        0.0000
     12 C2A       -10.1520    0.2500    2.2010 C.2       1 NAD1        0.0000
     13 H2A       -10.8460   -0.2870    2.8330 H         1 NAD1        0.0000
     14 N3A        -9.0700   -0.4010    1.6740 N.pl3     1 NAD1        0.0000
     15 C4A        -8.2240    0.3060    0.8870 C.ar      1 NAD1        0.0000
     16 C6A        -9.5060    2.2870    1.1340 C.3       1 NAD1        0.0000
     17 N6A        -9.7400    3.6550    0.8610 N.3       1 NAD1        0.0000
     18 H61A       -9.0960    4.1880    0.2590 H         1 NAD1        0.0000
     19 H62A      -10.5620    4.1280    1.2620 H         1 NAD1        0.0000
     20 C2B        -6.5170   -2.1010   -1.1020 C.3       1 NAD1        0.0000
     21 H2B        -6.0680   -1.3800   -1.8190 H         1 NAD1        0.0000
     22 O2B        -7.7650   -2.5150   -1.6030 O.3       1 NAD1        0.0000
     23 HO2A       -8.2480   -2.9950   -0.8820 H         1 NAD1        0.0000
     24 C3B        -5.5430   -3.2170   -0.8470 C.3       1 NAD1        0.0000
     25 H3B        -5.1410   -3.6850   -1.7750 H         1 NAD1        0.0000
     26 O3B        -6.1670   -4.2130   -0.0710 O.3       1 NAD1        0.0000
     27 HO3A       -5.5090   -4.9500    0.0280 H         1 NAD1        0.0000
     28 C5B        -3.4360   -1.7600   -0.8360 C.3       1 NAD1        0.0000
     29 H51A       -3.8940   -0.9910   -1.4950 H         1 NAD1        0.0000
     30 H52A       -2.9480   -2.5510   -1.4470 H         1 NAD1        0.0000
     31 PA         -1.2120   -0.4730   -0.9530 P.3       1 NAD1        0.0000
     32 O1A        -1.7320    0.8950   -1.4730 O.3       1 NAD1        0.0000
     33 O2A        -0.8270   -1.4710   -2.3230 O.2       1 NAD1        0.0000
     34 O5B        -2.4930   -1.1630    0.0220 O.3       1 NAD1        0.0000
     35 O3          0.1890   -0.1760    0.0480 O.3       1 NAD1        0.0000
     36 PN          1.4570    0.4490   -0.9790 P.3       1 NAD1        0.0000
     37 O1N         0.9070    1.7880   -1.9420 O.2       1 NAD1        0.0000
     38 O2N         1.9120   -0.6910   -1.9300 O.3       1 NAD1        0.0000
     39 O5D         2.8400    0.8840    0.0040 O.3       1 NAD1        0.0000
     40 C5D         3.7590    1.6000   -0.7870 C.3       1 NAD1        0.0000
     41 H51N        3.2510    2.4220   -1.3390 H         1 NAD1        0.0000
     42 H52N        4.2590    0.9140   -1.5030 H         1 NAD1        0.0000
     43 C2D         6.8370    2.1220   -0.9430 C.3       1 NAD1        0.0000
     44 H2D         6.4720    1.4340   -1.7370 H         1 NAD1        0.0000
     45 O2D         8.0810    2.6670   -1.2930 O.3       1 NAD1        0.0000
     46 HO2N        7.9560    3.1020   -2.1760 H         1 NAD1        0.0000
     47 C3D         5.7880    3.1550   -0.6300 C.3       1 NAD1        0.0000
     48 H3D         5.3830    3.6710   -1.5310 H         1 NAD1        0.0000
     49 O3D         6.3350    4.1230    0.2350 O.3       1 NAD1        0.0000
     50 HO3N        5.6320    4.8100    0.3730 H         1 NAD1        0.0000
     51 C1D         6.8750    1.4110    0.4080 C.3       1 NAD1        0.0000
     52 H1D         7.3870    2.0700    1.1480 H         1 NAD1        0.0000
     53 C4D         4.7870    2.2730    0.1390 C.3       1 NAD1        0.0000
     54 H4D         4.2120    2.9110    0.8460 H         1 NAD1        0.0000
     55 O4D         5.5310    1.2770    0.8360 O.3       1 NAD1        0.0000
     56 N1N         7.5510    0.1200    0.3390 N.pl3     1 NAD1        0.0000
     57 C6N         7.0310   -0.9200   -0.4950 C.2       1 NAD1        0.0000
     58 HN6         6.1240   -0.7590   -1.0690 H         1 NAD1        0.0000
     59 C5N         7.6470   -2.1030   -0.5840 C.2       1 NAD1        0.0000
     60 H5N         7.2390   -2.8780   -1.2250 H         1 NAD1        0.0000
     61 C4N         8.8990   -2.3740    0.1920 C.3       1 NAD1        0.0000
     62 H41N        9.3750   -3.3680    0.0900 H         1 NAD1        0.0000
     63 C3N         9.4120   -1.2630    1.0830 C.2       1 NAD1        0.0000
     64 C2N         8.7350   -0.0930    1.1200 C.2       1 NAD1        0.0000
     65 H2N         9.0960    0.7130    1.7530 H         1 NAD1        0.0000
     66 C7N        10.6500   -1.4340    1.9200 C.2       1 NAD1        0.0000
     67 O7N        11.0270   -0.5110    2.6290 O.2       1 NAD1        0.0000
     68 N7N        11.3670   -2.5850    1.9150 N.am      1 NAD1        0.0000
     69 N71N       11.1020   -3.3930    1.3410 H         1 NAD1        0.0000
     70 H72N       12.2100   -2.6660    2.5030 H         1 NAD1        0.0000
@<TRIPOS>BOND
     1   33   31 2 
     2   46   45 1 
     3   37   36 2 
     4   38   36 1 
     5   21   20 1 
     6   25   24 1 
     7   44   43 1 
     8   22   20 1 
     9   22   23 1 
    10   48   47 1 
    11   42   40 1 
    12   29   28 1 
    13   32   31 1 
    14   30   28 1 
    15   41   40 1 
    16   45   43 1 
    17   60   59 1 
    18   20   24 1 
    19   20    4 1 
    20   58   57 1 
    21    9    8 1 
    22   36   39 1 
    23   36   35 1 
    24   31   34 1 
    25   31   35 1 
    26   43   47 1 
    27   43   51 1 
    28   24   26 1 
    29   24    1 1 
    30   28    1 1 
    31   28   34 1 
    32   40   39 1 
    33   40   53 1 
    34   47   53 1 
    35   47   49 1 
    36   59   57 2 
    37   59   61 1 
    38   57   56 1 
    39    8    7 ar
    40    8   10 ar
    41    7    6 ar
    42   26   27 1 
    43    1    2 1 
    44    1    3 1 
    45   62   61 1 
    46   53   55 1 
    47   53   54 1 
    48   61   63 1 
    49   49   50 1 
    50   18   17 1 
    51   10    4 1 
    52   10   15 ar
    53    4    3 1 
    54    4    5 1 
    55   56   51 1 
    56   56   64 1 
    57   51   55 1 
    58   51   52 1 
    59    6   15 ar
    60    6   16 1 
    61   17   16 1 
    62   17   19 1 
    63   15   14 1 
    64   63   64 2 
    65   63   66 1 
    66   64   65 1 
    67   16   11 1 
    68   69   68 1 
    69   14   12 1 
    70   68   66 am
    71   68   70 1 
    72   66   67 2 
    73   11   12 2 
    74   12   13 1 
