@<TRIPOS>MOLECULE
C:\Users\Praveer\PycharmProjects\pdb_to_mol2_converter\data\pdb\nad1.pdb
   70    74     0     0     0
SMALL
GASTEIGER

@<TRIPOS>ATOM
      1 AC4'       -4.4260   -2.0800    0.0420 C.3       1 NAD1        0.0000
      2 AH4'       -4.1810   -2.7550    0.8890 H         1 NAD1        0.0000
      3 AO4'       -5.1180   -0.9110    0.5690 O.3       1 NAD1        0.0000
      4 AC1'       -6.5060   -1.1170    0.4670 C.3       1 NAD1        0.0000
      5 AH1'       -6.7950   -1.7690    1.3240 H         1 NAD1        0.0000
      6 AC5        -8.7470    1.7380    0.7070 C.ar      1 NAD1        0.0000
      7 AN7        -7.6130    2.3590    0.2120 N.ar      1 NAD1        0.0000
      8 AC8        -6.7390    1.3880    0.1000 C.ar      1 NAD1        0.0000
      9 AH8        -5.7110    1.4990   -0.2560 H         1 NAD1        0.0000
     10 AN9        -7.2280    0.1610    0.4880 N.ar      1 NAD1        0.0000
     11 AN1       -10.9320    1.3510    1.5180 N.2       1 NAD1        0.0000
     12 AC2       -10.5780    0.0670    1.6270 C.2       1 NAD1        0.0000
     13 AH2       -11.3620   -0.5940    2.0090 H         1 NAD1        0.0000
     14 AN3        -9.4220   -0.5290    1.2990 N.pl3     1 NAD1        0.0000
     15 AC4        -8.5290    0.3810    0.8740 C.ar      1 NAD1        0.0000
     16 AC6       -10.0200    2.2370    1.0470 C.3       1 NAD1        0.0000
     17 AN6       -10.3460    3.5380    0.9150 N.3       1 NAD1        0.0000
     18 AH61       -9.6780    4.1950    0.5730 H         1 NAD1        0.0000
     19 AH62      -11.2620    3.8280    1.1750 H         1 NAD1        0.0000
     20 AC2'       -6.7090   -1.8480   -0.8310 C.3       1 NAD1        0.0000
     21 AH2'       -6.6690   -1.1510   -1.7000 H         1 NAD1        0.0000
     22 AO2'       -7.9290   -2.5830   -0.8450 O.3       1 NAD1        0.0000
     23 AH2T       -8.6540   -2.0360   -0.5140 H         1 NAD1        0.0000
     24 AC3'       -5.4710   -2.7640   -0.8720 C.3       1 NAD1        0.0000
     25 AH3'       -5.0610   -2.7650   -1.9080 H         1 NAD1        0.0000
     26 AO3'       -5.7420   -4.1120   -0.4680 O.3       1 NAD1        0.0000
     27 AH3T       -6.6250   -4.3140   -0.8040 H         1 NAD1        0.0000
     28 AC5'       -3.1500   -1.6910   -0.7160 C.3       1 NAD1        0.0000
     29 AH5'       -3.4740   -0.9720   -1.5090 H         1 NAD1        0.0000
     30 AH5S       -2.7910   -2.6210   -1.2260 H         1 NAD1        0.0000
     31 AP         -0.8070   -0.7590   -0.8170 P.3       1 NAD1        0.0000
     32 AO1        -1.4340    0.0870   -1.8710 O.2       1 NAD1        0.0000
     33 AO2        -0.2890   -2.0890   -1.2110 O.3       1 NAD1        0.0000
     34 AO5'       -2.0730   -1.1200    0.1110 O.3       1 NAD1        0.0000
     35 O3          0.1990   -0.0910    0.1550 O.3       1 NAD1        0.0000
     36 NP          1.1370    0.6530   -0.8250 P.3       1 NAD1        0.0000
     37 NO1         0.6140    2.0150   -1.0760 O.3       1 NAD1        0.0000
     38 NO2         1.7050   -0.1030   -1.9750 O.2       1 NAD1        0.0000
     39 NO5'        2.4630    0.9510    0.0420 O.3       1 NAD1        0.0000
     40 NC5'        3.4650    1.6090   -0.8110 C.3       1 NAD1        0.0000
     41 NH5S        3.0580    2.5660   -1.2230 H         1 NAD1        0.0000
     42 NH5'        3.7410    0.9580   -1.6790 H         1 NAD1        0.0000
     43 NC2'        7.1500    2.0550   -0.7240 C.3       1 NAD1        0.0000
     44 NH2'        7.5500    1.5530   -1.6330 H         1 NAD1        0.0000
     45 NO2'        8.0670    3.0220   -0.2650 O.3       1 NAD1        0.0000
     46 NH2T        7.6000    3.8710   -0.3560 H         1 NAD1        0.0000
     47 NC3'        5.7700    2.6660   -1.0440 C.3       1 NAD1        0.0000
     48 NH3'        5.5030    2.3610   -2.0840 H         1 NAD1        0.0000
     49 NO3'        5.7020    4.0980   -0.9430 O.3       1 NAD1        0.0000
     50 NH3T        4.8070    4.3860   -1.1680 H         1 NAD1        0.0000
     51 NC1'        6.8400    1.0790    0.3860 C.3       1 NAD1        0.0000
     52 NH1'        6.9350    1.5840    1.3760 H         1 NAD1        0.0000
     53 NC4'        4.7780    1.9510   -0.1110 C.3       1 NAD1        0.0000
     54 NH4'        4.6090    2.5620    0.8010 H         1 NAD1        0.0000
     55 NO4'        5.4890    0.7500    0.2630 O.3       1 NAD1        0.0000
     56 NN1         7.6830   -0.1190    0.3040 N.pl3     1 NAD1        0.0000
     57 NC6         7.3920   -1.0970   -0.5660 C.2       1 NAD1        0.0000
     58 NH6         6.4680   -0.9850   -1.1460 H         1 NAD1        0.0000
     59 NC5         8.1760   -2.2150   -0.6940 C.2       1 NAD1        0.0000
     60 NH5         7.9230   -3.0050   -1.4060 H         1 NAD1        0.0000
     61 NC4         9.2980   -2.3450    0.1050 C.3       1 NAD1        0.0000
     62 NH4         9.9280   -3.2340    0.0240 H         1 NAD1        0.0000
     63 NC3         9.6020   -1.3330    1.0130 C.2       1 NAD1        0.0000
     64 NC2         8.7690   -0.2380    1.0750 C.2       1 NAD1        0.0000
     65 NH2         8.9800    0.5790    1.7720 H         1 NAD1        0.0000
     66 NC7        10.8160   -1.4410    1.9130 C.2       1 NAD1        0.0000
     67 NO7        11.0430   -0.5370    2.6950 O.2       1 NAD1        0.0000
     68 NN7        11.5900   -2.5510    1.7970 N.am      1 NAD1        0.0000
     69 NH71       11.4200   -3.2990    1.1680 H         1 NAD1        0.0000
     70 NH72       12.3860   -2.5990    2.3990 H         1 NAD1        0.0000
@<TRIPOS>BOND
     1   48   47 1 
     2   38   36 2 
     3   25   24 1 
     4   32   31 2 
     5   21   20 1 
     6   42   40 1 
     7   44   43 1 
     8   29   28 1 
     9   60   59 1 
    10   30   28 1 
    11   41   40 1 
    12   33   31 1 
    13   50   49 1 
    14   58   57 1 
    15   37   36 1 
    16   47   49 1 
    17   47   43 1 
    18   47   53 1 
    19   24   20 1 
    20   24   26 1 
    21   24    1 1 
    22   22   20 1 
    23   22   23 1 
    24   20    4 1 
    25   36   39 1 
    26   36   35 1 
    27   31   34 1 
    28   31   35 1 
    29   40   53 1 
    30   40   39 1 
    31   27   26 1 
    32   43   45 1 
    33   43   51 1 
    34   28    1 1 
    35   28   34 1 
    36   59   57 2 
    37   59   61 1 
    38   57   56 1 
    39   46   45 1 
    40    9    8 1 
    41   53   55 1 
    42   53   54 1 
    43   62   61 1 
    44    1    3 1 
    45    1    2 1 
    46    8    7 ar
    47    8   10 ar
    48   61   63 1 
    49    7    6 ar
    50   55   51 1 
    51   56   51 1 
    52   56   64 1 
    53   51   52 1 
    54    4   10 1 
    55    4    3 1 
    56    4    5 1 
    57   10   15 ar
    58   18   17 1 
    59    6   15 ar
    60    6   16 1 
    61   15   14 1 
    62   17   16 1 
    63   17   19 1 
    64   63   64 2 
    65   63   66 1 
    66   16   11 1 
    67   64   65 1 
    68   69   68 1 
    69   14   12 1 
    70   11   12 2 
    71   12   13 1 
    72   68   66 am
    73   68   70 1 
    74   66   67 2 
