@<TRIPOS>MOLECULE
C:\Users\Praveer\PycharmProjects\pdb_to_mol2_converter\data\pdb\nade.pdb
   38    40     0     0     0
SMALL
GASTEIGER

@<TRIPOS>ATOM
      1 O4'         1.5020    0.3720   -0.3860 O.3       1 NAD1        0.0000
      2 C1'         2.0470    1.6180    0.0640 C.3       1 NAD1        0.0000
      3 H12'        2.7620    1.3670    0.8660 H         1 NAD1        0.0000
      4 C4'         0.1500    0.2100    0.0740 C.3       1 NAD1        0.0000
      5 H42'        0.1130   -0.7340    0.6440 H         1 NAD1        0.0000
      6 C5          3.7830    3.6850   -2.3920 C.ar      1 NAD1        0.0000
      7 N7          3.6670    2.5000   -3.1230 N.ar      1 NAD1        0.0000
      8 C8          3.0310    1.6840   -2.2880 C.ar      1 NAD1        0.0000
      9 H8          2.7510    0.6510   -2.5090 H         1 NAD1        0.0000
     10 N9          2.7310    2.2590   -1.0700 N.ar      1 NAD1        0.0000
     11 N1          4.2980    5.9210   -1.7510 N.2       1 NAD1        0.0000
     12 C2          3.7190    5.6730   -0.5430 C.2       1 NAD1        0.0000
     13 H2          3.7010    6.4840    0.1910 H         1 NAD1        0.0000
     14 N3          3.1700    4.4910   -0.1730 N.pl3     1 NAD1        0.0000
     15 C4          3.2130    3.5430   -1.1220 C.ar      1 NAD1        0.0000
     16 C6          4.3480    4.9410   -2.6940 C.3       1 NAD1        0.0000
     17 N6          4.9490    5.2560   -3.8570 N.3       1 NAD1        0.0000
     18 H61         5.3140    6.1780   -3.9400 H         1 NAD1        0.0000
     19 H62         5.0310    4.5970   -4.6000 H         1 NAD1        0.0000
     20 C2'         0.8900    2.4240    0.6540 C.3       1 NAD1        0.0000
     21 H21'        0.4710    3.1210   -0.0880 H         1 NAD1        0.0000
     22 H22'        1.2070    3.0480    1.5010 H         1 NAD1        0.0000
     23 C3'        -0.1500    1.3810    1.0190 C.3       1 NAD1        0.0000
     24 H31'       -1.1780    1.7510    0.8390 H         1 NAD1        0.0000
     25 O3'         0.0300    0.9790    2.3720 O.3       1 NAD1        0.0000
     26 P          -0.6790    1.8270    3.5600 P.3       1 NAD1        0.0000
     27 O1P         0.1340    3.0770    3.7910 O.3       1 NAD1        0.0000
     28 O2P        -2.1460    1.9290    3.2170 O.2       1 NAD1        0.0000
     29 O3P        -0.5330    0.8690    4.8770 O.3       1 NAD1        0.0000
     30 C3T        -0.4020    1.4910    6.1530 C.3       1 NAD1        0.0000
     31 H3T1       -1.3130    2.0800    6.4050 H         1 NAD1        0.0000
     32 H3T2        0.4860    2.1640    6.1880 H         1 NAD1        0.0000
     33 H3T3       -0.2680    0.7110    6.9340 H         1 NAD1        0.0000
     34 C5'        -0.8490    0.0930   -1.1000 C.3       1 NAD1        0.0000
     35 H51'       -1.8890    0.1370   -0.7080 H         1 NAD1        0.0000
     36 H52'       -0.7060   -0.8910   -1.5970 H         1 NAD1        0.0000
     37 H5T        -0.5250    1.9250   -1.5830 H         1 NAD1        0.0000
     38 O5'        -0.6620    1.1140   -2.0830 O.3       1 NAD1        0.0000
@<TRIPOS>BOND
     1   19   17 1 
     2   18   17 1 
     3   17   16 1 
     4    7    6 ar
     5    7    8 ar
     6   16    6 1 
     7   16   11 1 
     8    9    8 1 
     9    6   15 ar
    10    8   10 ar
    11   38   37 1 
    12   38   34 1 
    13   11   12 2 
    14   36   34 1 
    15   15   10 ar
    16   15   14 1 
    17   34   35 1 
    18   34    4 1 
    19   10    2 1 
    20   12   14 1 
    21   12   13 1 
    22    1    2 1 
    23    1    4 1 
    24   21   20 1 
    25    2   20 1 
    26    2    3 1 
    27    4    5 1 
    28    4   23 1 
    29   20   23 1 
    30   20   22 1 
    31   24   23 1 
    32   23   25 1 
    33   25   26 1 
    34   28   26 2 
    35   26   27 1 
    36   26   29 1 
    37   29   30 1 
    38   30   32 1 
    39   30   31 1 
    40   30   33 1 
