@<TRIPOS>MOLECULE
C:\Users\Praveer\PycharmProjects\pdb_to_mol2_converter\data\pdb\nadh.pdb
   71    75     0     0     0
SMALL
GASTEIGER

@<TRIPOS>ATOM
      1 AC4'       -4.4330   -2.0800    0.0480 C.3       1 NAD1        0.0000
      2 AH4'       -4.1880   -2.7500    0.8990 H         1 NAD1        0.0000
      3 AO4'       -5.1260   -0.9160    0.5770 O.3       1 NAD1        0.0000
      4 AC1'       -6.5160   -1.1200    0.4610 C.3       1 NAD1        0.0000
      5 AH1'       -6.8180   -1.7730    1.3110 H         1 NAD1        0.0000
      6 AC5        -8.7530    1.7380    0.7090 C.ar      1 NAD1        0.0000
      7 AN7        -7.6220    2.3550    0.2000 N.ar      1 NAD1        0.0000
      8 AC8        -6.7520    1.3810    0.0880 C.ar      1 NAD1        0.0000
      9 AH8        -5.7230    1.4890   -0.2680 H         1 NAD1        0.0000
     10 AN9        -7.2390    0.1570    0.4880 N.ar      1 NAD1        0.0000
     11 AN1       -10.9430    1.3640    1.5200 N.2       1 NAD1        0.0000
     12 AC2       -10.5890    0.0810    1.6430 C.2       1 NAD1        0.0000
     13 AH2       -11.3680   -0.5810    2.0320 H         1 NAD1        0.0000
     14 AN3        -9.4150   -0.5060    1.3830 N.pl3     1 NAD1        0.0000
     15 AC4        -8.5350    0.3830    0.8930 C.ar      1 NAD1        0.0000
     16 AC6       -10.0250    2.2410    1.0460 C.3       1 NAD1        0.0000
     17 AN6       -10.3470    3.5430    0.9140 N.3       1 NAD1        0.0000
     18 AH61       -9.6770    4.1960    0.5680 H         1 NAD1        0.0000
     19 AH62      -11.2630    3.8320    1.1720 H         1 NAD1        0.0000
     20 AC2'       -6.6980   -1.8460   -0.8470 C.3       1 NAD1        0.0000
     21 AH2'       -6.6670   -1.1410   -1.7080 H         1 NAD1        0.0000
     22 AO2'       -7.8950   -2.5930   -0.8790 O.3       1 NAD1        0.0000
     23 AH2T       -7.6570   -3.4750   -0.5550 H         1 NAD1        0.0000
     24 AC3'       -5.4640   -2.7640   -0.8810 C.3       1 NAD1        0.0000
     25 AH3'       -5.0580   -2.7470   -1.9200 H         1 NAD1        0.0000
     26 AO3'       -5.7240   -4.1290   -0.4990 O.3       1 NAD1        0.0000
     27 AH3T       -4.9150   -4.6410   -0.6130 H         1 NAD1        0.0000
     28 AC5'       -3.1610   -1.6910   -0.7120 C.3       1 NAD1        0.0000
     29 AH5'       -3.4870   -0.9660   -1.5000 H         1 NAD1        0.0000
     30 AH5S       -2.8030   -2.6160   -1.2320 H         1 NAD1        0.0000
     31 AP         -0.8190   -0.7710   -0.8160 P.3       1 NAD1        0.0000
     32 AO1        -1.4530    0.0690   -1.8700 O.2       1 NAD1        0.0000
     33 AO2        -0.3180   -2.1090   -1.2060 O.3       1 NAD1        0.0000
     34 AO5'       -2.0830   -1.1310    0.1160 O.3       1 NAD1        0.0000
     35 O3          0.1890   -0.1050    0.1520 O.3       1 NAD1        0.0000
     36 NP          1.1220    0.6520   -0.8270 P.3       1 NAD1        0.0000
     37 NO1         0.5690    2.0030   -1.0750 O.3       1 NAD1        0.0000
     38 NO2         1.6760   -0.1020   -1.9870 O.2       1 NAD1        0.0000
     39 NO5'        2.4420    0.9560    0.0410 O.3       1 NAD1        0.0000
     40 NC5'        3.4530    1.6100   -0.8070 C.3       1 NAD1        0.0000
     41 NH5S        3.0530    2.5680   -1.2260 H         1 NAD1        0.0000
     42 NH5'        3.7360    0.9550   -1.6700 H         1 NAD1        0.0000
     43 NC2'        7.1550    2.0710   -0.7110 C.3       1 NAD1        0.0000
     44 NH2'        7.5390    1.5430   -1.6130 H         1 NAD1        0.0000
     45 NO2'        8.0900    3.0570   -0.2840 O.3       1 NAD1        0.0000
     46 NH2T        8.9340    2.6340   -0.1030 H         1 NAD1        0.0000
     47 NC3'        5.7710    2.6660   -1.0410 C.3       1 NAD1        0.0000
     48 NH3'        5.5000    2.3530   -2.0760 H         1 NAD1        0.0000
     49 NO3'        5.7130    4.0940   -0.9590 O.3       1 NAD1        0.0000
     50 NH3T        6.6200    4.3630   -0.7570 H         1 NAD1        0.0000
     51 NC1'        6.8460    1.0940    0.4050 C.3       1 NAD1        0.0000
     52 NH1'        6.9560    1.5910    1.3940 H         1 NAD1        0.0000
     53 NC4'        4.7700    1.9670   -0.1070 C.3       1 NAD1        0.0000
     54 NH4'        4.5940    2.5970    0.7870 H         1 NAD1        0.0000
     55 NO4'        5.4800    0.7780    0.3050 O.3       1 NAD1        0.0000
     56 NN1         7.6930   -0.1180    0.3070 N.pl3     1 NAD1        0.0000
     57 NC6         7.3850   -1.0950   -0.6110 C.2       1 NAD1        0.0000
     58 NH6         6.4650   -0.9970   -1.1970 H         1 NAD1        0.0000
     59 NC5         8.1350   -2.1720   -0.7700 C.2       1 NAD1        0.0000
     60 NH5         7.7980   -2.9530   -1.4530 H         1 NAD1        0.0000
     61 NC4         9.3720   -2.4650    0.0280 C.3       1 NAD1        0.0000
     62 NH4        10.2530   -2.6540   -0.6110 H         1 NAD1        0.0000
     63 NH42        9.1910   -3.4020    0.5980 H         1 NAD1        0.0000
     64 NC3         9.6120   -1.3480    1.0480 C.2       1 NAD1        0.0000
     65 NC2         8.8030   -0.2710    1.1110 C.2       1 NAD1        0.0000
     66 NH2         9.0180    0.5190    1.8330 H         1 NAD1        0.0000
     67 NC7        10.8320   -1.3710    1.9660 C.2       1 NAD1        0.0000
     68 NO7        11.0760   -0.4580    2.7350 O.2       1 NAD1        0.0000
     69 NN7        11.6050   -2.4890    1.8520 N.am      1 NAD1        0.0000
     70 NH71       11.3830   -3.2160    1.2080 H         1 NAD1        0.0000
     71 NH72       12.4100   -2.5670    2.4350 H         1 NAD1        0.0000
@<TRIPOS>BOND
     1   48   47 1 
     2   38   36 2 
     3   25   24 1 
     4   32   31 2 
     5   21   20 1 
     6   42   40 1 
     7   44   43 1 
     8   29   28 1 
     9   60   59 1 
    10   30   28 1 
    11   41   40 1 
    12   33   31 1 
    13   58   57 1 
    14   37   36 1 
    15   47   49 1 
    16   47   43 1 
    17   47   53 1 
    18   49   50 1 
    19   24   20 1 
    20   24   26 1 
    21   24    1 1 
    22   22   20 1 
    23   22   23 1 
    24   20    4 1 
    25   36   39 1 
    26   36   35 1 
    27   31   34 1 
    28   31   35 1 
    29   40   53 1 
    30   40   39 1 
    31   59   57 2 
    32   59   61 1 
    33   28    1 1 
    34   28   34 1 
    35   43   45 1 
    36   43   51 1 
    37   27   26 1 
    38   62   61 1 
    39   57   56 1 
    40   45   46 1 
    41    9    8 1 
    42   53   55 1 
    43   53   54 1 
    44   61   63 1 
    45   61   64 1 
    46    1    3 1 
    47    1    2 1 
    48    8    7 ar
    49    8   10 ar
    50    7    6 ar
    51   55   51 1 
    52   56   51 1 
    53   56   65 1 
    54   51   52 1 
    55    4   10 1 
    56    4    3 1 
    57    4    5 1 
    58   10   15 ar
    59   18   17 1 
    60    6   15 ar
    61    6   16 1 
    62   15   14 1 
    63   17   16 1 
    64   17   19 1 
    65   16   11 1 
    66   64   65 2 
    67   64   67 1 
    68   65   66 1 
    69   70   69 1 
    70   14   12 1 
    71   11   12 2 
    72   12   13 1 
    73   69   67 am
    74   69   71 1 
    75   67   68 2 
