@<TRIPOS>MOLECULE
C:\Users\Praveer\PycharmProjects\pdb_to_mol2_converter\data\pdb\nadp.pdb
   74    78     0     0     0
SMALL
GASTEIGER

@<TRIPOS>ATOM
      1 AC4'       -3.1680    1.1680    0.2630 C.3       1 NAD1        0.0000
      2 AH4'       -2.6810    2.0400   -0.2220 H         1 NAD1        0.0000
      3 AO4'       -3.9560    0.4650   -0.7410 O.3       1 NAD1        0.0000
      4 AC1'       -5.2940    0.9000   -0.6410 C.3       1 NAD1        0.0000
      5 AH1'       -5.3570    1.8780   -1.1710 H         1 NAD1        0.0000
      6 AC5        -7.9180   -1.1290   -2.1280 C.ar      1 NAD1        0.0000
      7 AN7        -6.9940   -2.1130   -1.8110 N.ar      1 NAD1        0.0000
      8 AC8        -6.0070   -1.4480   -1.2590 C.ar      1 NAD1        0.0000
      9 AH8        -5.0800   -1.8870   -0.8790 H         1 NAD1        0.0000
     10 AN9        -6.2090   -0.0890   -1.2170 N.ar      1 NAD1        0.0000
     11 AN1        -9.8800   -0.0390   -2.8830 N.2       1 NAD1        0.0000
     12 AC2        -9.3030    1.0970   -2.4790 C.2       1 NAD1        0.0000
     13 AH2        -9.8950    2.0040   -2.6330 H         1 NAD1        0.0000
     14 AN3        -8.0950    1.2910   -1.9430 N.pl3     1 NAD1        0.0000
     15 AC4        -7.4490    0.1240   -1.7720 C.ar      1 NAD1        0.0000
     16 AC6        -9.1960   -1.1980   -2.7170 C.3       1 NAD1        0.0000
     17 AN6        -9.7450   -2.3600   -3.1200 N.3       1 NAD1        0.0000
     18 AH61       -9.2610   -3.2190   -2.9730 H         1 NAD1        0.0000
     19 AH62      -10.6590   -2.3380   -3.5120 H         1 NAD1        0.0000
     20 AC2'       -5.5380    1.0910    0.8330 C.3       1 NAD1        0.0000
     21 AH2'       -5.6360    0.0870    1.3210 H         1 NAD1        0.0000
     22 AO2'       -6.6760    1.9630    1.0740 O.3       1 NAD1        0.0000
     23 AP2        -7.8390    1.4130    1.9790 P.3       1 NAD1        0.0000
     24 AO1P       -7.2900    0.7510    3.1730 O.3       1 NAD1        0.0000
     25 AO2P       -8.9150    2.4090    2.1070 O.2       1 NAD1        0.0000
     26 AO2T       -8.4610    0.2930    1.0820 O.3       1 NAD1        0.0000
     27 AH2T       -8.8410    0.7070    0.2980 H         1 NAD1        0.0000
     28 AC3'       -4.2020    1.6830    1.2950 C.3       1 NAD1        0.0000
     29 AH3'       -3.9510    1.2510    2.2920 H         1 NAD1        0.0000
     30 AO3'       -4.2300    3.1120    1.3900 O.3       1 NAD1        0.0000
     31 AH3T       -5.1130    3.3150    1.7280 H         1 NAD1        0.0000
     32 AC5'       -2.1120    0.2600    0.9100 C.3       1 NAD1        0.0000
     33 AH5'       -2.6410   -0.6200    1.3510 H         1 NAD1        0.0000
     34 AH5S       -1.7200    0.8780    1.7570 H         1 NAD1        0.0000
     35 AP          0.0700   -1.0360    0.8600 P.3       1 NAD1        0.0000
     36 AO1         0.2900   -0.1600    2.0360 O.3       1 NAD1        0.0000
     37 AO2        -0.6140   -2.3350    1.0690 O.2       1 NAD1        0.0000
     38 AO5'       -1.0130   -0.1770    0.0320 O.3       1 NAD1        0.0000
     39 O3          1.2700   -1.0910   -0.1220 O.3       1 NAD1        0.0000
     40 NP          2.3020   -1.8480    0.7530 P.3       1 NAD1        0.0000
     41 NO1         2.0880   -3.3130    0.8060 O.2       1 NAD1        0.0000
     42 NO2         2.7430   -1.1640    1.9960 O.3       1 NAD1        0.0000
     43 NO5'        3.6430   -1.7290   -0.1360 O.3       1 NAD1        0.0000
     44 NC5'        4.8170   -2.1310    0.6490 C.3       1 NAD1        0.0000
     45 NH5S        4.7010   -3.1860    1.0000 H         1 NAD1        0.0000
     46 NH5'        4.9350   -1.4830    1.5540 H         1 NAD1        0.0000
     47 NC2'        8.4760   -1.5270    0.5160 C.3       1 NAD1        0.0000
     48 NH2'        8.7460   -1.0050    1.4610 H         1 NAD1        0.0000
     49 NO2'        9.6110   -2.1670   -0.0210 O.3       1 NAD1        0.0000
     50 NH2T        9.3970   -3.1160    0.0050 H         1 NAD1        0.0000
     51 NC3'        7.3250   -2.5160    0.7890 C.3       1 NAD1        0.0000
     52 NH3'        7.0080   -2.3740    1.8490 H         1 NAD1        0.0000
     53 NO3'        7.6490   -3.9000    0.5770 O.3       1 NAD1        0.0000
     54 NH3T        6.8720   -4.4380    0.7790 H         1 NAD1        0.0000
     55 NC1'        7.8850   -0.5920   -0.5110 C.3       1 NAD1        0.0000
     56 NH1'        8.0910   -0.9740   -1.5390 H         1 NAD1        0.0000
     57 NC4'        6.1530   -2.0370   -0.0850 C.3       1 NAD1        0.0000
     58 NH4'        6.1380   -2.5990   -1.0420 H         1 NAD1        0.0000
     59 NO4'        6.4970   -0.6590   -0.3600 O.3       1 NAD1        0.0000
     60 NN1         8.3710    0.7820   -0.3370 N.pl3     1 NAD1        0.0000
     61 NC6         7.8470    1.5730    0.6110 C.2       1 NAD1        0.0000
     62 NH6         7.0040    1.1680    1.1840 H         1 NAD1        0.0000
     63 NC5         8.3000    2.8500    0.8250 C.2       1 NAD1        0.0000
     64 NH5         7.8600    3.4840    1.5990 H         1 NAD1        0.0000
     65 NC4         9.3240    3.3440    0.0370 C.3       1 NAD1        0.0000
     66 NH4         9.6890    4.3620    0.1860 H         1 NAD1        0.0000
     67 NC3         9.8700    2.5240   -0.9510 C.2       1 NAD1        0.0000
     68 NC2         9.3650    1.2520   -1.0980 C.2       1 NAD1        0.0000
     69 NH2         9.7740    0.5800   -1.8580 H         1 NAD1        0.0000
     70 NC7        10.9840    3.0360   -1.8360 C.2       1 NAD1        0.0000
     71 NO7        11.4350    2.2800   -2.6990 O.2       1 NAD1        0.0000
     72 NN7        11.4310    4.2920   -1.6410 N.am      1 NAD1        0.0000
     73 NH71       11.0790    4.9200   -0.9520 H         1 NAD1        0.0000
     74 NH72       12.1700    4.6060   -2.2380 H         1 NAD1        0.0000
@<TRIPOS>BOND
     1   19   17 1 
     2   17   18 1 
     3   17   16 1 
     4   11   16 1 
     5   11   12 2 
     6   16    6 1 
     7   71   70 2 
     8   13   12 1 
     9   12   14 1 
    10   74   72 1 
    11    6    7 ar
    12    6   15 ar
    13   14   15 1 
    14   69   68 1 
    15   70   72 am
    16   70   67 1 
    17    7    8 ar
    18   15   10 ar
    19   72   73 1 
    20   56   55 1 
    21    8   10 ar
    22    8    9 1 
    23   10    4 1 
    24    5    4 1 
    25   68   67 2 
    26   68   60 1 
    27   58   57 1 
    28   67   65 1 
    29    3    4 1 
    30    3    1 1 
    31    4   20 1 
    32   55   59 1 
    33   55   60 1 
    34   55   47 1 
    35   59   57 1 
    36   60   61 1 
    37    2    1 1 
    38   43   44 1 
    39   43   40 1 
    40   39   40 1 
    41   39   35 1 
    42   57   44 1 
    43   57   51 1 
    44   49   50 1 
    45   49   47 1 
    46   38   35 1 
    47   38   32 1 
    48   65   66 1 
    49   65   63 1 
    50    1   32 1 
    51    1   28 1 
    52   27   26 1 
    53   47   51 1 
    54   47   48 1 
    55   53   54 1 
    56   53   51 1 
    57   61   63 2 
    58   61   62 1 
    59   44   45 1 
    60   44   46 1 
    61   40   41 2 
    62   40   42 1 
    63   51   52 1 
    64   63   64 1 
    65   20   22 1 
    66   20   28 1 
    67   20   21 1 
    68   35   37 2 
    69   35   36 1 
    70   32   33 1 
    71   32   34 1 
    72   22   23 1 
    73   26   23 1 
    74   28   30 1 
    75   28   29 1 
    76   30   31 1 
    77   23   25 2 
    78   23   24 1 
