@<TRIPOS>MOLECULE
C:\Users\Praveer\PycharmProjects\pdb_to_mol2_converter\data\pdb\naft.pdb
   18    19     0     0     0
SMALL
GASTEIGER

@<TRIPOS>ATOM
      1 C1          2.0920    1.2200    0.0000 C.ar      1 NAF1        0.0000
      2 H1          3.1730    1.2360    0.0000 H         1 NAF1        0.0000
      3 C2          1.3880    2.4310   -0.0000 C.ar      1 NAF1        0.0000
      4 H2          1.9260    3.3680   -0.0000 H         1 NAF1        0.0000
      5 C3         -0.0130    2.4310   -0.0000 C.ar      1 NAF1        0.0000
      6 H3         -0.5510    3.3680   -0.0000 H         1 NAF1        0.0000
      7 C4         -0.7170    1.2200   -0.0000 C.ar      1 NAF1        0.0000
      8 H4         -1.7980    1.2360   -0.0000 H         1 NAF1        0.0000
      9 C5         -0.0240    0.0000   -0.0000 C.ar      1 NAF1        0.0000
     10 C6         -0.7170   -1.2200   -0.0000 C.ar      1 NAF1        0.0000
     11 H6         -1.7980   -1.2360   -0.0000 H         1 NAF1        0.0000
     12 C7         -0.0130   -2.4310   -0.0000 C.ar      1 NAF1        0.0000
     13 H7         -0.5510   -3.3680   -0.0000 H         1 NAF1        0.0000
     14 C8          1.3880   -2.4310    0.0000 C.ar      1 NAF1        0.0000
     15 H8          1.9260   -3.3680    0.0000 H         1 NAF1        0.0000
     16 C9          2.0920   -1.2200    0.0000 C.ar      1 NAF1        0.0000
     17 H9          3.1730   -1.2360    0.0000 H         1 NAF1        0.0000
     18 C10         1.3990   -0.0000    0.0000 C.ar      1 NAF1        0.0000
@<TRIPOS>BOND
     1    1    2 1 
     2    1    3 ar
     3    1   18 ar
     4    3    4 1 
     5    3    5 ar
     6    5    6 1 
     7    5    7 ar
     8    7    8 1 
     9    7    9 ar
    10    9   10 ar
    11    9   18 ar
    12   10   11 1 
    13   10   12 ar
    14   12   13 1 
    15   12   14 ar
    16   14   15 1 
    17   14   16 ar
    18   16   17 1 
    19   16   18 ar
