@<TRIPOS>MOLECULE
C:\Users\Praveer\PycharmProjects\pdb_to_mol2_converter\data\pdb\nai.pdb
   71    75     0     0     0
SMALL
GASTEIGER

@<TRIPOS>ATOM
      1 C4B        -4.4340   -2.0810    0.0510 C.3       1 NAI1        0.0000
      2 H4B        -4.1910   -2.7530    0.9010 H         1 NAI1        0.0000
      3 O4B        -5.1330   -0.9210    0.5820 O.3       1 NAI1        0.0000
      4 C1B        -6.5230   -1.1250    0.4500 C.3       1 NAI1        0.0000
      5 H1B        -6.8340   -1.7860    1.2920 H         1 NAI1        0.0000
      6 C5A        -8.7540    1.7370    0.7090 C.ar      1 NAI1        0.0000
      7 N7A        -7.6220    2.3540    0.2010 N.ar      1 NAI1        0.0000
      8 C8A        -6.7540    1.3780    0.0870 C.ar      1 NAI1        0.0000
      9 H8A        -5.7250    1.4860   -0.2690 H         1 NAI1        0.0000
     10 N9A        -7.2440    0.1530    0.4830 N.ar      1 NAI1        0.0000
     11 N1A       -10.9440    1.3650    1.5210 N.2       1 NAI1        0.0000
     12 C2A       -10.5900    0.0820    1.6430 C.2       1 NAI1        0.0000
     13 H2A       -11.3690   -0.5800    2.0330 H         1 NAI1        0.0000
     14 N3A        -9.4190   -0.5060    1.3820 N.pl3     1 NAI1        0.0000
     15 C4A        -8.5380    0.3810    0.8920 C.ar      1 NAI1        0.0000
     16 C6A       -10.0250    2.2420    1.0470 C.3       1 NAI1        0.0000
     17 N6A       -10.3470    3.5440    0.9150 N.3       1 NAI1        0.0000
     18 H61A       -9.6770    4.1960    0.5690 H         1 NAI1        0.0000
     19 H62A      -11.2640    3.8320    1.1720 H         1 NAI1        0.0000
     20 C2B        -6.6880   -1.8360   -0.8710 C.3       1 NAI1        0.0000
     21 H2B        -6.6300   -1.1180   -1.7180 H         1 NAI1        0.0000
     22 O2B        -7.8940   -2.5690   -0.9570 O.3       1 NAI1        0.0000
     23 HO2A       -7.6390   -3.5040   -0.9650 H         1 NAI1        0.0000
     24 C3B        -5.4570   -2.7600   -0.8890 C.3       1 NAI1        0.0000
     25 H3B        -5.0410   -2.7390   -1.9230 H         1 NAI1        0.0000
     26 O3B        -5.7250   -4.1270   -0.5230 O.3       1 NAI1        0.0000
     27 HO3A       -4.8910   -4.6120   -0.5100 H         1 NAI1        0.0000
     28 C5B        -3.1610   -1.6880   -0.7090 C.3       1 NAI1        0.0000
     29 H51A       -3.4870   -0.9650   -1.4970 H         1 NAI1        0.0000
     30 H52A       -2.8020   -2.6130   -1.2280 H         1 NAI1        0.0000
     31 PA         -0.8170   -0.7640   -0.8170 P.3       1 NAI1        0.0000
     32 O1A        -1.4490    0.0760   -1.8710 O.2       1 NAI1        0.0000
     33 O2A        -0.3130   -2.1010   -1.2080 O.3       1 NAI1        0.0000
     34 O5B        -2.0810   -1.1260    0.1160 O.3       1 NAI1        0.0000
     35 O3          0.1910   -0.0950    0.1500 O.3       1 NAI1        0.0000
     36 PN          1.1260    0.6600   -0.8280 P.3       1 NAI1        0.0000
     37 O1N         0.5860    2.0160   -1.0760 O.3       1 NAI1        0.0000
     38 O2N         1.6820   -0.0900   -1.9870 O.2       1 NAI1        0.0000
     39 O5D         2.4450    0.9680    0.0430 O.3       1 NAI1        0.0000
     40 C5D         3.4630    1.6130   -0.8020 C.3       1 NAI1        0.0000
     41 H51N        3.0620    2.5640   -1.2320 H         1 NAI1        0.0000
     42 H52N        3.7460    0.9500   -1.6590 H         1 NAI1        0.0000
     43 C2D         7.1590    2.0500   -0.7300 C.3       1 NAI1        0.0000
     44 H2D         7.5310    1.5050   -1.6260 H         1 NAI1        0.0000
     45 O2D         8.1090    3.0240   -0.3380 O.3       1 NAI1        0.0000
     46 HO2N        7.8090    3.8580   -0.7260 H         1 NAI1        0.0000
     47 C3D         5.7760    2.6620   -1.0420 C.3       1 NAI1        0.0000
     48 H3D         5.5050    2.3350   -2.0730 H         1 NAI1        0.0000
     49 O3D         5.7010    4.0980   -0.9800 O.3       1 NAI1        0.0000
     50 HO3N        4.7750    4.3570   -1.0650 H         1 NAI1        0.0000
     51 C1D         6.8540    1.0870    0.4010 C.3       1 NAI1        0.0000
     52 H1D         6.9810    1.5980    1.3820 H         1 NAI1        0.0000
     53 C4D         4.7800    1.9670   -0.0970 C.3       1 NAI1        0.0000
     54 H4D         4.6080    2.5910    0.8030 H         1 NAI1        0.0000
     55 O4D         5.4830    0.7800    0.3130 O.3       1 NAI1        0.0000
     56 N1N         7.6840   -0.1350    0.3160 N.pl3     1 NAI1        0.0000
     57 C6N         7.3790   -1.1070   -0.6060 C.2       1 NAI1        0.0000
     58 HN6         6.4670   -1.0000   -1.2010 H         1 NAI1        0.0000
     59 C5N         8.1290   -2.1840   -0.7630 C.2       1 NAI1        0.0000
     60 H5N         7.8050   -2.9550   -1.4630 H         1 NAI1        0.0000
     61 C4N         9.3740   -2.4690    0.0280 C.3       1 NAI1        0.0000
     62 H41N       10.2510   -2.6580   -0.6160 H         1 NAI1        0.0000
     63 H42N        9.1980   -3.4020    0.6040 H         1 NAI1        0.0000
     64 C3N         9.6190   -1.3410    1.0410 C.2       1 NAI1        0.0000
     65 C2N         8.8060   -0.2710    1.1030 C.2       1 NAI1        0.0000
     66 H2N         9.0330    0.5380    1.8020 H         1 NAI1        0.0000
     67 C7N        10.8320   -1.3810    1.9620 C.2       1 NAI1        0.0000
     68 O7N        11.0730   -0.4630    2.7530 O.2       1 NAI1        0.0000
     69 N7N        11.6040   -2.4860    1.8550 N.am      1 NAI1        0.0000
     70 N71N       11.3860   -3.2130    1.2020 H         1 NAI1        0.0000
     71 H72N       12.4100   -2.5660    2.4360 H         1 NAI1        0.0000
@<TRIPOS>BOND
     1   48   47 1 
     2   38   36 2 
     3   25   24 1 
     4   32   31 2 
     5   21   20 1 
     6   42   40 1 
     7   44   43 1 
     8   29   28 1 
     9   60   59 1 
    10   41   40 1 
    11   30   28 1 
    12   33   31 1 
    13   58   57 1 
    14   37   36 1 
    15   50   49 1 
    16   47   49 1 
    17   47   43 1 
    18   47   53 1 
    19   23   22 1 
    20   22   20 1 
    21   24   20 1 
    22   24   26 1 
    23   24    1 1 
    24   20    4 1 
    25   36   39 1 
    26   36   35 1 
    27   31   34 1 
    28   31   35 1 
    29   40   53 1 
    30   40   39 1 
    31   59   57 2 
    32   59   61 1 
    33   43   45 1 
    34   43   51 1 
    35   46   45 1 
    36   28    1 1 
    37   28   34 1 
    38   62   61 1 
    39   57   56 1 
    40   26   27 1 
    41    9    8 1 
    42   53   55 1 
    43   53   54 1 
    44   61   63 1 
    45   61   64 1 
    46    1    3 1 
    47    1    2 1 
    48    8    7 ar
    49    8   10 ar
    50    7    6 ar
    51   55   51 1 
    52   56   51 1 
    53   56   65 1 
    54   51   52 1 
    55    4   10 1 
    56    4    3 1 
    57    4    5 1 
    58   10   15 ar
    59   18   17 1 
    60    6   15 ar
    61    6   16 1 
    62   15   14 1 
    63   17   16 1 
    64   17   19 1 
    65   64   65 2 
    66   64   67 1 
    67   16   11 1 
    68   65   66 1 
    69   70   69 1 
    70   14   12 1 
    71   11   12 2 
    72   12   13 1 
    73   69   67 am
    74   69   71 1 
    75   67   68 2 
