@<TRIPOS>MOLECULE
C:\Users\Praveer\PycharmProjects\pdb_to_mol2_converter\data\pdb\nap.pdb
   74    78     0     0     0
SMALL
GASTEIGER

@<TRIPOS>ATOM
      1 C4B        -3.1680    1.1680    0.2630 C.3       1 NAP1        0.0000
      2 H4B        -2.6810    2.0400   -0.2220 H         1 NAP1        0.0000
      3 O4B        -3.9560    0.4650   -0.7400 O.3       1 NAP1        0.0000
      4 C1B        -5.2940    0.9000   -0.6410 C.3       1 NAP1        0.0000
      5 H1B        -5.3560    1.8780   -1.1710 H         1 NAP1        0.0000
      6 C5A        -7.9180   -1.1290   -2.1280 C.ar      1 NAP1        0.0000
      7 N7A        -6.9940   -2.1130   -1.8110 N.ar      1 NAP1        0.0000
      8 C8A        -6.0070   -1.4480   -1.2590 C.ar      1 NAP1        0.0000
      9 H8A        -5.0810   -1.8870   -0.8790 H         1 NAP1        0.0000
     10 N9A        -6.2090   -0.0890   -1.2170 N.ar      1 NAP1        0.0000
     11 N1A        -9.8800   -0.0390   -2.8830 N.2       1 NAP1        0.0000
     12 C2A        -9.3030    1.0970   -2.4790 C.2       1 NAP1        0.0000
     13 H2A        -9.8950    2.0040   -2.6330 H         1 NAP1        0.0000
     14 N3A        -8.0950    1.2910   -1.9430 N.pl3     1 NAP1        0.0000
     15 C4A        -7.4490    0.1240   -1.7720 C.ar      1 NAP1        0.0000
     16 C6A        -9.1960   -1.1980   -2.7170 C.3       1 NAP1        0.0000
     17 N6A        -9.7450   -2.3600   -3.1200 N.3       1 NAP1        0.0000
     18 H61A       -9.2610   -3.2190   -2.9730 H         1 NAP1        0.0000
     19 H62A      -10.6590   -2.3380   -3.5120 H         1 NAP1        0.0000
     20 C2B        -5.5380    1.0910    0.8330 C.3       1 NAP1        0.0000
     21 H2B        -5.6360    0.0870    1.3210 H         1 NAP1        0.0000
     22 O2B        -6.6760    1.9630    1.0740 O.3       1 NAP1        0.0000
     23 P2B        -7.8400    1.4130    1.9790 P.3       1 NAP1        0.0000
     24 O1X        -7.2890    0.7510    3.1730 O.3       1 NAP1        0.0000
     25 O2X        -8.9150    2.4080    2.1070 O.2       1 NAP1        0.0000
     26 O3X        -8.4610    0.2920    1.0820 O.3       1 NAP1        0.0000
     27 HO2A       -8.8410    0.7070    0.2980 H         1 NAP1        0.0000
     28 C3B        -4.2020    1.6830    1.2950 C.3       1 NAP1        0.0000
     29 H3B        -3.9510    1.2510    2.2920 H         1 NAP1        0.0000
     30 O3B        -4.2300    3.1120    1.3910 O.3       1 NAP1        0.0000
     31 HO3A       -5.1130    3.3150    1.7280 H         1 NAP1        0.0000
     32 C5B        -2.1120    0.2600    0.9100 C.3       1 NAP1        0.0000
     33 H51A       -2.6400   -0.6200    1.3510 H         1 NAP1        0.0000
     34 H52A       -1.7190    0.8780    1.7570 H         1 NAP1        0.0000
     35 PA          0.0700   -1.0360    0.8590 P.3       1 NAP1        0.0000
     36 O1A         0.2910   -0.1600    2.0360 O.3       1 NAP1        0.0000
     37 O2A        -0.6140   -2.3350    1.0690 O.2       1 NAP1        0.0000
     38 O5B        -1.0130   -0.1770    0.0320 O.3       1 NAP1        0.0000
     39 O3          1.2700   -1.0910   -0.1220 O.3       1 NAP1        0.0000
     40 PN          2.3030   -1.8480    0.7520 P.3       1 NAP1        0.0000
     41 O1N         2.0880   -3.3120    0.8060 O.2       1 NAP1        0.0000
     42 O2N         2.7440   -1.1640    1.9950 O.3       1 NAP1        0.0000
     43 O5D         3.6450   -1.7300   -0.1380 O.3       1 NAP1        0.0000
     44 C5D         4.8190   -2.1330    0.6470 C.3       1 NAP1        0.0000
     45 H51N        4.7020   -3.1870    0.9990 H         1 NAP1        0.0000
     46 H52N        4.9370   -1.4840    1.5520 H         1 NAP1        0.0000
     47 C2D         8.4770   -1.5190    0.5390 C.3       1 NAP1        0.0000
     48 H2D         8.7160   -0.9840    1.4850 H         1 NAP1        0.0000
     49 O2D         9.6420   -2.1410    0.0420 O.3       1 NAP1        0.0000
     50 HO2N        9.5500   -3.0840    0.2630 H         1 NAP1        0.0000
     51 C3D         7.3270   -2.5150    0.7990 C.3       1 NAP1        0.0000
     52 H3D         6.9990   -2.3660    1.8550 H         1 NAP1        0.0000
     53 O3D         7.6610   -3.8990    0.6090 O.3       1 NAP1        0.0000
     54 HO3N        6.8730   -4.4350    0.7750 H         1 NAP1        0.0000
     55 C1D         7.8930   -0.5960   -0.5050 C.3       1 NAP1        0.0000
     56 H1D         8.1080   -0.9870   -1.5280 H         1 NAP1        0.0000
     57 C4D         6.1590   -2.0420   -0.0840 C.3       1 NAP1        0.0000
     58 H4D         6.1460   -2.6070   -1.0400 H         1 NAP1        0.0000
     59 O4D         6.5030   -0.6650   -0.3650 O.3       1 NAP1        0.0000
     60 N1N         8.3730    0.7810   -0.3370 N.pl3     1 NAP1        0.0000
     61 C6N         7.8480    1.5720    0.6090 C.2       1 NAP1        0.0000
     62 HN6         7.0040    1.1670    1.1820 H         1 NAP1        0.0000
     63 C5N         8.3000    2.8490    0.8240 C.2       1 NAP1        0.0000
     64 H5N         7.8590    3.4830    1.5980 H         1 NAP1        0.0000
     65 C4N         9.3240    3.3430    0.0360 C.3       1 NAP1        0.0000
     66 H41N        9.6890    4.3620    0.1850 H         1 NAP1        0.0000
     67 C3N         9.8700    2.5240   -0.9520 C.2       1 NAP1        0.0000
     68 C2N         9.3660    1.2510   -1.0990 C.2       1 NAP1        0.0000
     69 H2N         9.7750    0.5790   -1.8590 H         1 NAP1        0.0000
     70 C7N        10.9850    3.0350   -1.8380 C.2       1 NAP1        0.0000
     71 O7N        11.4350    2.2810   -2.6980 O.2       1 NAP1        0.0000
     72 N7N        11.4310    4.2930   -1.6400 N.am      1 NAP1        0.0000
     73 N71N       11.0780    4.9200   -0.9530 H         1 NAP1        0.0000
     74 H72N       12.1700    4.6060   -2.2380 H         1 NAP1        0.0000
@<TRIPOS>BOND
     1   19   17 1 
     2   17   18 1 
     3   17   16 1 
     4   11   16 1 
     5   11   12 2 
     6   16    6 1 
     7   71   70 2 
     8   13   12 1 
     9   12   14 1 
    10   74   72 1 
    11    6    7 ar
    12    6   15 ar
    13   14   15 1 
    14   69   68 1 
    15   70   72 am
    16   70   67 1 
    17    7    8 ar
    18   15   10 ar
    19   72   73 1 
    20   56   55 1 
    21    8   10 ar
    22    8    9 1 
    23   10    4 1 
    24    5    4 1 
    25   68   67 2 
    26   68   60 1 
    27   58   57 1 
    28   67   65 1 
    29    3    4 1 
    30    3    1 1 
    31    4   20 1 
    32   55   59 1 
    33   55   60 1 
    34   55   47 1 
    35   59   57 1 
    36   60   61 1 
    37    2    1 1 
    38   43   44 1 
    39   43   40 1 
    40   39   40 1 
    41   39   35 1 
    42   57   44 1 
    43   57   51 1 
    44   38   35 1 
    45   38   32 1 
    46   65   66 1 
    47   65   63 1 
    48   49   50 1 
    49   49   47 1 
    50    1   32 1 
    51    1   28 1 
    52   27   26 1 
    53   47   51 1 
    54   47   48 1 
    55   61   63 2 
    56   61   62 1 
    57   53   54 1 
    58   53   51 1 
    59   44   45 1 
    60   44   46 1 
    61   40   41 2 
    62   40   42 1 
    63   51   52 1 
    64   63   64 1 
    65   20   22 1 
    66   20   28 1 
    67   20   21 1 
    68   35   37 2 
    69   35   36 1 
    70   32   33 1 
    71   32   34 1 
    72   22   23 1 
    73   26   23 1 
    74   28   30 1 
    75   28   29 1 
    76   30   31 1 
    77   23   25 2 
    78   23   24 1 
