@<TRIPOS>MOLECULE
C:\Users\Praveer\PycharmProjects\pdb_to_mol2_converter\data\pdb\nc4.pdb
   17    16     0     0     0
SMALL
GASTEIGER

@<TRIPOS>ATOM
      1 N           1.5100   -0.0010   -0.0000 N.4       1 NC41        0.0000
      2 C1          2.0100    1.4110   -0.0000 C.3       1 NC41        0.0000
      3 C2          0.0130    0.0000    0.0000 C.3       1 NC41        0.0000
      4 C3          2.0080   -0.7070   -1.2230 C.3       1 NC41        0.0000
      5 C4          2.0090   -0.7070    1.2220 C.3       1 NC41        0.0000
      6 H11         1.6630    1.9470    0.8760 H         1 NC41        0.0000
      7 H12         1.6630    1.9470   -0.8760 H         1 NC41        0.0000
      8 H13         3.0930    1.4400   -0.0010 H         1 NC41        0.0000
      9 H21        -0.3770    0.5060   -0.8760 H         1 NC41        0.0000
     10 H22        -0.3770    0.5060    0.8760 H         1 NC41        0.0000
     11 H23        -0.3780   -1.0110    0.0000 H         1 NC41        0.0000
     12 H31         3.0920   -0.7220   -1.2490 H         1 NC41        0.0000
     13 H32         1.6620   -0.2160   -2.1250 H         1 NC41        0.0000
     14 H33         1.6610   -1.7330   -1.2490 H         1 NC41        0.0000
     15 H41         1.6620   -0.2160    2.1240 H         1 NC41        0.0000
     16 H42         3.0920   -0.7230    1.2480 H         1 NC41        0.0000
     17 H43         1.6610   -1.7330    1.2490 H         1 NC41        0.0000
@<TRIPOS>BOND
     1   13    4 1 
     2   12    4 1 
     3   14    4 1 
     4    4    1 1 
     5    7    2 1 
     6    9    3 1 
     7    8    2 1 
     8    1    2 1 
     9    1    3 1 
    10    1    5 1 
    11    2    6 1 
    12    3   11 1 
    13    3   10 1 
    14    5   16 1 
    15    5   17 1 
    16    5   15 1 
