@<TRIPOS>MOLECULE
C:\Users\Praveer\PycharmProjects\pdb_to_mol2_converter\data\pdb\nc5.pdb
   20    19     0     0     0
SMALL
GASTEIGER

@<TRIPOS>ATOM
      1 N           1.4740    0.0170   -0.0000 N.4       1 NC51        0.0000
      2 C1          1.9610    1.4540   -0.0010 C.3       1 NC51        0.0000
      3 C2          1.9690   -0.7060   -1.2210 C.3       1 NC51        0.0000
      4 C3          1.9690   -0.7060    1.2200 C.3       1 NC51        0.0000
      5 C4         -0.0290   -0.0190    0.0000 C.3       1 NC51        0.0000
      6 H11         1.5520    1.9660    0.8680 H         1 NC51        0.0000
      7 H12         1.5510    1.9660   -0.8690 H         1 NC51        0.0000
      8 H21         3.0530   -0.6990   -1.2490 H         1 NC51        0.0000
      9 H22         1.6150   -0.2340   -2.1290 H         1 NC51        0.0000
     10 H23         1.6420   -1.7380   -1.2270 H         1 NC51        0.0000
     11 H31         1.6160   -0.2330    2.1290 H         1 NC51        0.0000
     12 H32         3.0540   -0.6980    1.2480 H         1 NC51        0.0000
     13 H33         1.6420   -1.7380    1.2270 H         1 NC51        0.0000
     14 H41        -0.4360    0.4700   -0.8780 H         1 NC51        0.0000
     15 H42        -0.4360    0.4700    0.8780 H         1 NC51        0.0000
     16 H43        -0.3900   -1.0420    0.0000 H         1 NC51        0.0000
     17 C5          3.4910    1.6400   -0.0010 C.3       1 NC51        0.0000
     18 H51         3.9650    1.1990   -0.9030 H         1 NC51        0.0000
     19 H52         3.9660    1.1990    0.9000 H         1 NC51        0.0000
     20 H53         3.7380    2.7250   -0.0010 H         1 NC51        0.0000
@<TRIPOS>BOND
     1    9    3 1 
     2    8    3 1 
     3   10    3 1 
     4    3    1 1 
     5   18   17 1 
     6   14    5 1 
     7    7    2 1 
     8    2   17 1 
     9    2    1 1 
    10    2    6 1 
    11   17   20 1 
    12   17   19 1 
    13    1    5 1 
    14    1    4 1 
    15    5   16 1 
    16    5   15 1 
    17    4   13 1 
    18    4   12 1 
    19    4   11 1 
