@<TRIPOS>MOLECULE
C:\Users\Praveer\PycharmProjects\pdb_to_mol2_converter\data\pdb\ncyp.pdb
   18    18     0     0     0
SMALL
GASTEIGER

@<TRIPOS>ATOM
      1 N1          1.4090   -0.0020   -0.0040 N.pl3     1 NCY1        0.0000
      2 H1          1.8930   -0.8700   -0.0080 H         1 NCY1        0.0000
      3 C2          2.1430    1.1410   -0.0020 C.3       1 NCY1        0.0000
      4 N2          3.4780    1.1050   -0.0040 N.3       1 NCY1        0.0000
      5 H2          3.8960    0.2030   -0.0090 H         1 NCY1        0.0000
      6 N3          1.4560    2.3150    0.0020 N.pl3     1 NCY1        0.0000
      7 H3          1.9200    3.1850   -0.0020 H         1 NCY1        0.0000
      8 C4          0.0600    2.4440    0.0040 C.2       1 NCY1        0.0000
      9 N4         -0.4220    3.6470    0.0070 N.2       1 NCY1        0.0000
     10 H4         -1.4190    3.6270    0.0080 H         1 NCY1        0.0000
     11 C5         -0.6640    1.2100    0.0030 C.2       1 NCY1        0.0000
     12 H5         -1.7390    1.2480    0.0060 H         1 NCY1        0.0000
     13 C6          0.0050   -0.0040   -0.0010 C.2       1 NCY1        0.0000
     14 H6         -0.5100   -0.9620   -0.0040 H         1 NCY1        0.0000
     15 C7          4.3020    2.3250    0.0420 C.3       1 NCY1        0.0000
     16 H71         4.1030    2.9260    0.9600 H         1 NCY1        0.0000
     17 H72         4.1240    2.9780   -0.8450 H         1 NCY1        0.0000
     18 H73         5.3870    2.0720    0.0470 H         1 NCY1        0.0000
@<TRIPOS>BOND
     1   17   15 1 
     2    5    4 1 
     3    2    1 1 
     4    1    3 1 
     5    1   13 1 
     6    4    3 1 
     7    4   15 1 
     8   14   13 1 
     9    3    6 1 
    10    7    6 1 
    11   13   11 2 
    12    6    8 1 
    13   11    8 1 
    14   11   12 1 
    15    8    9 2 
    16    9   10 1 
    17   15   18 1 
    18   15   16 1 
