@<TRIPOS>MOLECULE
C:\Users\Praveer\PycharmProjects\pdb_to_mol2_converter\data\pdb\ndp.pdb
   75    79     0     0     0
SMALL
GASTEIGER

@<TRIPOS>ATOM
      1 C4B         1.4750   -0.0280   -0.0040 C.3       1 NDP1        0.0000
      2 H4B         1.8300   -0.5650   -0.9090 H         1 NDP1        0.0000
      3 O4B         0.0180   -0.0280   -0.0200 O.3       1 NDP1        0.0000
      4 C1B        -0.4670   -0.7590    1.0860 C.3       1 NDP1        0.0000
      5 H1B        -0.6370   -0.0080    1.8930 H         1 NDP1        0.0000
      6 C5A        -3.8520   -1.8490    0.3780 C.ar      1 NDP1        0.0000
      7 N7A        -3.1690   -2.9860   -0.0170 N.ar      1 NDP1        0.0000
      8 C8A        -1.9110   -2.6960    0.2290 C.ar      1 NDP1        0.0000
      9 H8A        -1.0750   -3.3830    0.0740 H         1 NDP1        0.0000
     10 N9A        -1.7240   -1.4310    0.7400 N.ar      1 NDP1        0.0000
     11 N1A        -5.5950   -0.3160    0.8510 N.2       1 NDP1        0.0000
     12 C2A        -4.6350    0.5130    1.2710 C.2       1 NDP1        0.0000
     13 H2A        -4.9830    1.4830    1.6360 H         1 NDP1        0.0000
     14 N3A        -3.3120    0.3410    1.3000 N.pl3     1 NDP1        0.0000
     15 C4A        -2.9780   -0.8800    0.8400 C.ar      1 NDP1        0.0000
     16 C6A        -5.2260   -1.5360    0.3880 C.3       1 NDP1        0.0000
     17 N6A        -6.1740   -2.3930   -0.0360 N.3       1 NDP1        0.0000
     18 H61A       -5.9240   -3.3110   -0.3330 H         1 NDP1        0.0000
     19 H62A       -7.1240   -2.1080    0.0350 H         1 NDP1        0.0000
     20 C2B         0.6370   -1.7060    1.5120 C.3       1 NDP1        0.0000
     21 H2B         0.6910   -2.6110    0.8600 H         1 NDP1        0.0000
     22 O2B         0.5410   -2.0280    2.9170 O.3       1 NDP1        0.0000
     23 P2B        -0.2840   -3.2840    3.3750 P.3       1 NDP1        0.0000
     24 O1X        -0.4240   -4.2620    2.2820 O.2       1 NDP1        0.0000
     25 O2X         0.1030   -3.7540    4.7140 O.3       1 NDP1        0.0000
     26 O3X        -1.7470   -2.7780    3.5820 O.3       1 NDP1        0.0000
     27 HO2A       -2.2630   -3.5020    3.9470 H         1 NDP1        0.0000
     28 C3B         1.8620   -0.8600    1.2360 C.3       1 NDP1        0.0000
     29 H3B         2.0510   -0.1530    2.0740 H         1 NDP1        0.0000
     30 O3B         3.0130   -1.6690    0.9570 O.3       1 NDP1        0.0000
     31 HO3A        3.7640   -1.0620    0.7400 H         1 NDP1        0.0000
     32 C5B         1.9710    1.4310   -0.0100 C.3       1 NDP1        0.0000
     33 H51A        1.2050    2.0640    0.4910 H         1 NDP1        0.0000
     34 H52A        2.0330    1.7960   -1.0610 H         1 NDP1        0.0000
     35 PA          4.6300    1.4930    0.0700 P.3       1 NDP1        0.0000
     36 O1A         4.4030    1.9840   -1.3210 O.3       1 NDP1        0.0000
     37 O2A         4.8710    0.0300    0.2750 O.3       1 NDP1        0.0000
     38 O5B         3.2020    1.6110    0.7190 O.3       1 NDP1        0.0000
     39 O3          5.2000    2.5000    1.1110 O.3       1 NDP1        0.0000
     40 PN          6.5220    2.2070    0.4230 P.3       1 NDP1        0.0000
     41 O1N         7.0270    3.4630   -0.1850 O.2       1 NDP1        0.0000
     42 O2N        10.7350    0.1070   -0.7430 O.3       1 NDP1        0.0000
     43 O5D         7.4270    1.8930    1.6770 O.3       1 NDP1        0.0000
     44 C5D         8.8600    2.0350    1.6540 C.3       1 NDP1        0.0000
     45 H51N        9.1090    3.0810    1.9400 H         1 NDP1        0.0000
     46 H52N        9.2890    1.8610    0.6370 H         1 NDP1        0.0000
     47 C2D         9.5140   -1.2100    3.4140 C.3       1 NDP1        0.0000
     48 H2D        10.4530   -1.2820    4.0080 H         1 NDP1        0.0000
     49 O2D         9.1000   -2.5130    3.0620 O.3       1 NDP1        0.0000
     50 HO2N        8.6330   -2.3740    2.2190 H         1 NDP1        0.0000
     51 C3D         9.7950   -0.3680    2.1710 C.3       1 NDP1        0.0000
     52 H3D        10.8730   -0.4710    1.9120 H         1 NDP1        0.0000
     53 O3D         9.0410   -0.7490    1.0080 O.3       1 NDP1        0.0000
     54 HO3N        9.5650   -0.4180    0.2290 H         1 NDP1        0.0000
     55 C1D         8.5210   -0.3460    4.2070 C.3       1 NDP1        0.0000
     56 H1D         8.7290   -0.5070    5.2880 H         1 NDP1        0.0000
     57 C4D         9.5930    1.0890    2.6460 C.3       1 NDP1        0.0000
     58 H4D        10.6080    1.4970    2.8360 H         1 NDP1        0.0000
     59 O4D         8.9230    0.9980    3.9520 O.3       1 NDP1        0.0000
     60 N1N         7.0430   -0.5980    3.9870 N.3       1 NDP1        0.0000
     61 C6N         6.1520    0.4570    3.9600 C.3       1 NDP1        0.0000
     62 HN6         6.5490    1.4710    3.8890 H         1 NDP1        0.0000
     63 C5N         4.8320    0.3260    3.9950 C.3       1 NDP1        0.0000
     64 H5N         4.2830    1.0000    3.3340 H         1 NDP1        0.0000
     65 C4N         4.1400   -0.9920    4.2280 C.3       1 NDP1        0.0000
     66 H41N        3.2900   -1.1670    3.5480 H         1 NDP1        0.0000
     67 H42N        3.6960   -0.9550    5.2450 H         1 NDP1        0.0000
     68 C3N         5.1760   -2.1140    4.2320 C.3       1 NDP1        0.0000
     69 C2N         6.4960   -1.8490    4.2200 C.3       1 NDP1        0.0000
     70 H2N         7.1790   -2.6620    4.4620 H         1 NDP1        0.0000
     71 C7N         4.8370   -3.5620    3.8740 C.2       1 NDP1        0.0000
     72 O7N         5.6090   -4.4790    4.1550 O.2       1 NDP1        0.0000
     73 N7N         3.6490   -3.7650    3.2570 N.am      1 NDP1        0.0000
     74 N71N        3.4190   -4.6830    2.9450 H         1 NDP1        0.0000
     75 H72N        3.1180   -3.0030    2.8710 H         1 NDP1        0.0000
@<TRIPOS>BOND
     1   36   35 1 
     2   34   32 1 
     3    2    1 1 
     4   18   17 1 
     5   41   40 2 
     6   17   19 1 
     7   17   16 1 
     8    3    1 1 
     9    3    4 1 
    10    7    8 ar
    11    7    6 ar
    12   32    1 1 
    13   32   33 1 
    14   32   38 1 
    15    1   28 1 
    16   35   37 1 
    17   35   40 1 
    18   35   38 1 
    19   35   39 1 
    20    9    8 1 
    21   54   53 1 
    22    8   10 ar
    23    6   16 1 
    24    6   15 ar
    25   16   11 1 
    26   40   39 1 
    27   40   43 1 
    28   46   44 1 
    29   31   30 1 
    30   10   15 ar
    31   10    4 1 
    32   15   14 1 
    33   11   12 2 
    34   21   20 1 
    35   30   28 1 
    36   53   51 1 
    37    4   20 1 
    38    4    5 1 
    39   28   20 1 
    40   28   29 1 
    41   12   14 1 
    42   12   13 1 
    43   20   22 1 
    44   44   43 1 
    45   44   45 1 
    46   44   57 1 
    47   52   51 1 
    48   51   57 1 
    49   51   47 1 
    50   50   49 1 
    51   24   23 2 
    52   57   58 1 
    53   57   59 1 
    54   75   73 1 
    55   22   23 1 
    56   74   73 1 
    57   49   47 1 
    58   73   71 am
    59   64   63 1 
    60   23   26 1 
    61   23   25 1 
    62   47   48 1 
    63   47   55 1 
    64   66   65 1 
    65   26   27 1 
    66   71   72 2 
    67   71   68 1 
    68   62   61 1 
    69   59   55 1 
    70   61   60 1 
    71   61   63 1 
    72   60   55 1 
    73   60   69 1 
    74   63   65 1 
    75   55   56 1 
    76   69   68 1 
    77   69   70 1 
    78   65   68 1 
    79   65   67 1 
