@<TRIPOS>MOLECULE
C:\Users\Praveer\PycharmProjects\pdb_to_mol2_converter\data\pdb\ndph.pdb
   75    79     0     0     0
SMALL
GASTEIGER

@<TRIPOS>ATOM
      1 AC4'       -3.1700    1.1700    0.2600 C.3       1 NDP1        0.0000
      2 AH4'       -2.6800    2.0410   -0.2240 H         1 NDP1        0.0000
      3 AO4'       -3.9570    0.4680   -0.7440 O.3       1 NDP1        0.0000
      4 AC1'       -5.2960    0.9000   -0.6420 C.3       1 NDP1        0.0000
      5 AH1'       -5.3600    1.8790   -1.1710 H         1 NDP1        0.0000
      6 AC5        -7.9170   -1.1300   -2.1290 C.ar      1 NDP1        0.0000
      7 AN7        -6.9940   -2.1140   -1.8120 N.ar      1 NDP1        0.0000
      8 AC8        -6.0070   -1.4480   -1.2590 C.ar      1 NDP1        0.0000
      9 AH8        -5.0800   -1.8870   -0.8790 H         1 NDP1        0.0000
     10 AN9        -6.2090   -0.0900   -1.2170 N.ar      1 NDP1        0.0000
     11 AN1        -9.8790   -0.0390   -2.8830 N.2       1 NDP1        0.0000
     12 AC2        -9.3020    1.0970   -2.4790 C.2       1 NDP1        0.0000
     13 AH2        -9.8950    2.0030   -2.6330 H         1 NDP1        0.0000
     14 AN3        -8.0950    1.2910   -1.9440 N.pl3     1 NDP1        0.0000
     15 AC4        -7.4490    0.1230   -1.7730 C.ar      1 NDP1        0.0000
     16 AC6        -9.1950   -1.1980   -2.7170 C.3       1 NDP1        0.0000
     17 AN6        -9.7450   -2.3600   -3.1210 N.3       1 NDP1        0.0000
     18 AH61       -9.2620   -3.2190   -2.9730 H         1 NDP1        0.0000
     19 AH62      -10.6590   -2.3370   -3.5110 H         1 NDP1        0.0000
     20 AC2'       -5.5390    1.0900    0.8330 C.3       1 NDP1        0.0000
     21 AH2'       -5.6350    0.0860    1.3210 H         1 NDP1        0.0000
     22 AO2'       -6.6760    1.9600    1.0750 O.3       1 NDP1        0.0000
     23 AP2        -7.8400    1.4130    1.9810 P.3       1 NDP1        0.0000
     24 AO1P       -7.2920    0.7500    3.1750 O.3       1 NDP1        0.0000
     25 AO2P       -8.9140    2.4090    2.1070 O.2       1 NDP1        0.0000
     26 AO2T       -8.4630    0.2940    1.0820 O.3       1 NDP1        0.0000
     27 AH2T       -8.8400    0.7110    0.3000 H         1 NDP1        0.0000
     28 AC3'       -4.2030    1.6840    1.2920 C.3       1 NDP1        0.0000
     29 AH3'       -3.9510    1.2540    2.2890 H         1 NDP1        0.0000
     30 AO3'       -4.2330    3.1130    1.3860 O.3       1 NDP1        0.0000
     31 AH3T       -5.1150    3.3150    1.7270 H         1 NDP1        0.0000
     32 AC5'       -2.1190    0.2620    0.9100 C.3       1 NDP1        0.0000
     33 AH5'       -2.6470   -0.6190    1.3500 H         1 NDP1        0.0000
     34 AH5S       -1.7270    0.8810    1.7570 H         1 NDP1        0.0000
     35 AP          0.0590   -1.0360    0.8660 P.3       1 NDP1        0.0000
     36 AO1         0.2710   -0.1640    2.0480 O.3       1 NDP1        0.0000
     37 AO2        -0.6340   -2.3310    1.0660 O.2       1 NDP1        0.0000
     38 AO5'       -1.0180   -0.1730    0.0340 O.3       1 NDP1        0.0000
     39 O3          1.2610   -1.0860   -0.1100 O.3       1 NDP1        0.0000
     40 NP          2.2890   -1.8570    0.7600 P.3       1 NDP1        0.0000
     41 NO1         2.0470   -3.3170    0.8050 O.2       1 NDP1        0.0000
     42 NO2         2.7200   -1.1860    2.0140 O.3       1 NDP1        0.0000
     43 NO5'        3.6250   -1.7420   -0.1340 O.3       1 NDP1        0.0000
     44 NC5'        4.8080   -2.1360    0.6460 C.3       1 NDP1        0.0000
     45 NH5S        4.7020   -3.1900    1.0030 H         1 NDP1        0.0000
     46 NH5'        4.9310   -1.4810    1.5440 H         1 NDP1        0.0000
     47 NC2'        8.4840   -1.5410    0.5000 C.3       1 NDP1        0.0000
     48 NH2'        8.7300   -0.9990    1.4420 H         1 NDP1        0.0000
     49 NO2'        9.6430   -2.1950   -0.0060 O.3       1 NDP1        0.0000
     50 NH2T       10.3360   -1.5440   -0.1510 H         1 NDP1        0.0000
     51 NC3'        7.3250   -2.5170    0.7830 C.3       1 NDP1        0.0000
     52 NH3'        7.0020   -2.3670    1.8390 H         1 NDP1        0.0000
     53 NO3'        7.6600   -3.8960    0.5920 O.3       1 NDP1        0.0000
     54 NH3T        8.6000   -3.8880    0.3660 H         1 NDP1        0.0000
     55 NC1'        7.8940   -0.6030   -0.5320 C.3       1 NDP1        0.0000
     56 NH1'        8.1130   -0.9730   -1.5590 H         1 NDP1        0.0000
     57 NC4'        6.1500   -2.0550   -0.0920 C.3       1 NDP1        0.0000
     58 NH4'        6.1320   -2.6380   -1.0350 H         1 NDP1        0.0000
     59 NO4'        6.4950   -0.6850   -0.4060 O.3       1 NDP1        0.0000
     60 NN1         8.3800    0.7850   -0.3400 N.pl3     1 NDP1        0.0000
     61 NC6         7.8410    1.5670    0.6550 C.2       1 NDP1        0.0000
     62 NH6         6.9980    1.1760    1.2340 H         1 NDP1        0.0000
     63 NC5         8.2730    2.7930    0.8970 C.2       1 NDP1        0.0000
     64 NH5         7.7550    3.3960    1.6450 H         1 NDP1        0.0000
     65 NC4         9.3630    3.4740    0.1220 C.3       1 NDP1        0.0000
     66 NH4        10.1750    3.8490    0.7720 H         1 NDP1        0.0000
     67 NH42        8.9190    4.3660   -0.3710 H         1 NDP1        0.0000
     68 NC3         9.8740    2.5450   -0.9840 C.2       1 NDP1        0.0000
     69 NC2         9.3870    1.2960   -1.1310 C.2       1 NDP1        0.0000
     70 NH2         9.7930    0.6530   -1.9140 H         1 NDP1        0.0000
     71 NC7        11.0190    2.9740   -1.8970 C.2       1 NDP1        0.0000
     72 NO7        11.4860    2.2170   -2.7410 O.2       1 NDP1        0.0000
     73 NN7        11.4620    4.2430   -1.7020 N.am      1 NDP1        0.0000
     74 NH71       11.0670    4.8340   -1.0010 H         1 NDP1        0.0000
     75 NH72       12.2020    4.5830   -2.2780 H         1 NDP1        0.0000
@<TRIPOS>BOND
     1   19   17 1 
     2   17   18 1 
     3   17   16 1 
     4   11   16 1 
     5   11   12 2 
     6   72   71 2 
     7   16    6 1 
     8   13   12 1 
     9   12   14 1 
    10   75   73 1 
    11    6    7 ar
    12    6   15 ar
    13   14   15 1 
    14   70   69 1 
    15   71   73 am
    16   71   68 1 
    17    7    8 ar
    18   15   10 ar
    19   73   74 1 
    20   56   55 1 
    21    8   10 ar
    22    8    9 1 
    23   10    4 1 
    24    5    4 1 
    25   69   68 2 
    26   69   60 1 
    27   58   57 1 
    28   68   65 1 
    29    3    4 1 
    30    3    1 1 
    31    4   20 1 
    32   55   59 1 
    33   55   60 1 
    34   55   47 1 
    35   59   57 1 
    36   67   65 1 
    37   60   61 1 
    38    2    1 1 
    39   50   49 1 
    40   43   44 1 
    41   43   40 1 
    42   39   40 1 
    43   39   35 1 
    44   57   44 1 
    45   57   51 1 
    46   49   47 1 
    47   38   35 1 
    48   38   32 1 
    49   65   66 1 
    50   65   63 1 
    51    1   32 1 
    52    1   28 1 
    53   27   26 1 
    54   54   53 1 
    55   47   51 1 
    56   47   48 1 
    57   53   51 1 
    58   44   45 1 
    59   44   46 1 
    60   61   63 2 
    61   61   62 1 
    62   40   41 2 
    63   40   42 1 
    64   51   52 1 
    65   20   22 1 
    66   20   28 1 
    67   20   21 1 
    68   35   37 2 
    69   35   36 1 
    70   63   64 1 
    71   32   33 1 
    72   32   34 1 
    73   22   23 1 
    74   26   23 1 
    75   28   30 1 
    76   28   29 1 
    77   30   31 1 
    78   23   25 2 
    79   23   24 1 
