@<TRIPOS>MOLECULE
C:\Users\Praveer\PycharmProjects\pdb_to_mol2_converter\data\pdb\neop.pdb
   17    16     0     0     0
SMALL
GASTEIGER

@<TRIPOS>ATOM
      1 C           1.5050   -0.0760    0.0010 C.3       1 NEO1        0.0000
      2 C1          2.1160    1.3310    0.0010 C.3       1 NEO1        0.0000
      3 C2         -0.0260    0.0310   -0.0010 C.3       1 NEO1        0.0000
      4 C3          1.9650   -0.8330   -1.2510 C.3       1 NEO1        0.0000
      5 C4          1.9630   -0.8330    1.2530 C.3       1 NEO1        0.0000
      6 H11         1.7910    1.8920    0.9020 H         1 NEO1        0.0000
      7 H12         1.7930    1.8910   -0.9010 H         1 NEO1        0.0000
      8 H13         3.2240    1.2690    0.0030 H         1 NEO1        0.0000
      9 H21        -0.3730    0.5770   -0.9030 H         1 NEO1        0.0000
     10 H22        -0.3740    0.5780    0.9000 H         1 NEO1        0.0000
     11 H23        -0.4830   -0.9800   -0.0010 H         1 NEO1        0.0000
     12 H31         3.0720   -0.9190   -1.2640 H         1 NEO1        0.0000
     13 H32         1.6410   -0.2970   -2.1670 H         1 NEO1        0.0000
     14 H33         1.5300   -1.8550   -1.2660 H         1 NEO1        0.0000
     15 H41         1.6360   -0.2970    2.1690 H         1 NEO1        0.0000
     16 H42         3.0690   -0.9190    1.2690 H         1 NEO1        0.0000
     17 H43         1.5280   -1.8550    1.2670 H         1 NEO1        0.0000
@<TRIPOS>BOND
     1   13    4 1 
     2   14    4 1 
     3   12    4 1 
     4    4    1 1 
     5    9    3 1 
     6    7    2 1 
     7    3   11 1 
     8    3    1 1 
     9    3   10 1 
    10    1    2 1 
    11    1    5 1 
    12    2    8 1 
    13    2    6 1 
    14    5   17 1 
    15    5   16 1 
    16    5   15 1 
