@<TRIPOS>MOLECULE
C:\Users\Praveer\PycharmProjects\pdb_to_mol2_converter\data\pdb\ner.pdb
   71    70     0     0     0
SMALL
GASTEIGER

@<TRIPOS>ATOM
      1 O1          0.0210   -0.1060    0.0920 O.co2     1 NER1        0.0000
      2 O2          2.0900   -0.9220    0.0640 O.co2     1 NER1        0.0000
      3 C1          1.2710    0.0330    0.0520 C.2       1 NER1        0.0000
      4 C2          1.7990    1.4670   -0.0160 C.3       1 NER1        0.0000
      5 H2R         1.4200    2.0000    0.8780 H         1 NER1        0.0000
      6 H2S         1.3600    1.9330   -0.9210 H         1 NER1        0.0000
      7 C3          3.3410    1.5520   -0.0720 C.3       1 NER1        0.0000
      8 H3R         3.7020    0.9650   -0.9470 H         1 NER1        0.0000
      9 H3S         3.7630    1.0770    0.8420 H         1 NER1        0.0000
     10 C4          3.8420    2.9980   -0.1860 C.3       1 NER1        0.0000
     11 H4R         3.4740    3.5760    0.6900 H         1 NER1        0.0000
     12 H4S         3.4040    3.4520   -1.1020 H         1 NER1        0.0000
     13 C5          5.3730    3.0900   -0.2560 C.3       1 NER1        0.0000
     14 H5R         5.7280    2.4710   -1.1100 H         1 NER1        0.0000
     15 H5S         5.8040    2.6580    0.6750 H         1 NER1        0.0000
     16 C6          5.8740    4.5290   -0.4340 C.3       1 NER1        0.0000
     17 H6R         5.5200    5.1480    0.4200 H         1 NER1        0.0000
     18 H6S         5.4300    4.9500   -1.3640 H         1 NER1        0.0000
     19 C7          7.4030    4.6180   -0.5250 C.3       1 NER1        0.0000
     20 H7R         7.7530    3.9690   -1.3600 H         1 NER1        0.0000
     21 H7S         7.8480    4.2260    0.4170 H         1 NER1        0.0000
     22 C8          7.8980    6.0510   -0.7630 C.3       1 NER1        0.0000
     23 H8R         7.5480    6.7020    0.0690 H         1 NER1        0.0000
     24 H8S         7.4480    6.4360   -1.7060 H         1 NER1        0.0000
     25 C9          9.4270    6.1360   -0.8650 C.3       1 NER1        0.0000
     26 H9R         9.7730    5.4660   -1.6840 H         1 NER1        0.0000
     27 H9S         9.8760    5.7680    0.0850 H         1 NER1        0.0000
     28 C10         9.9260    7.5600   -1.1410 C.3       1 NER1        0.0000
     29 H10R        9.5830    8.2340   -0.3230 H         1 NER1        0.0000
     30 H10S        9.4750    7.9250   -2.0910 H         1 NER1        0.0000
     31 C11        11.4550    7.6400   -1.2500 C.3       1 NER1        0.0000
     32 H11R       11.7970    6.9520   -2.0550 H         1 NER1        0.0000
     33 H11S       11.9080    7.2950   -0.2940 H         1 NER1        0.0000
     34 C12        11.9500    9.0600   -1.5610 C.3       1 NER1        0.0000
     35 H12R       11.6090    9.7500   -0.7570 H         1 NER1        0.0000
     36 H12S       11.4930    9.4000   -2.5170 H         1 NER1        0.0000
     37 C13        13.4790    9.1440   -1.6790 C.3       1 NER1        0.0000
     38 H13R       13.8140    8.4230   -2.4590 H         1 NER1        0.0000
     39 H13S       13.9290    8.8310   -0.7100 H         1 NER1        0.0000
     40 C14        13.9630   10.5600   -2.0400 C.3       1 NER1        0.0000
     41 H14R       13.5780   11.2590   -1.2630 H         1 NER1        0.0000
     42 H14S       13.4940   10.8580   -3.0050 H         1 NER1        0.0000
     43 C15        15.4670   10.6140   -2.1600 C.2       1 NER1        0.0000
     44 H15R       15.9000    9.8610   -2.8370 H         1 NER1        0.0000
     45 C16        16.2980   11.4500   -1.5080 C.2       1 NER1        0.0000
     46 H16R       17.3820   11.3600   -1.6790 H         1 NER1        0.0000
     47 C17        15.8960   12.5420   -0.5470 C.3       1 NER1        0.0000
     48 H17R       14.8730   12.9210   -0.7650 H         1 NER1        0.0000
     49 H17S       16.5800   13.4130   -0.6560 H         1 NER1        0.0000
     50 C18        15.9320   12.0690    0.9180 C.3       1 NER1        0.0000
     51 H18R       16.9580   11.7220    1.1760 H         1 NER1        0.0000
     52 H18S       15.2390   11.2060    1.0440 H         1 NER1        0.0000
     53 C19        15.5220   13.1760    1.8990 C.3       1 NER1        0.0000
     54 H19R       14.4970   13.5260    1.6430 H         1 NER1        0.0000
     55 H19S       16.2130   14.0410    1.7840 H         1 NER1        0.0000
     56 C20        15.5400   12.7090    3.3610 C.3       1 NER1        0.0000
     57 H20R       16.5640   12.3590    3.6190 H         1 NER1        0.0000
     58 H20S       14.8480   11.8450    3.4750 H         1 NER1        0.0000
     59 C21        15.1260   13.8170    4.3390 C.3       1 NER1        0.0000
     60 H21R       14.1010   14.1660    4.0810 H         1 NER1        0.0000
     61 H21S       15.8170   14.6820    4.2220 H         1 NER1        0.0000
     62 C22        15.1450   13.3530    5.8010 C.3       1 NER1        0.0000
     63 H22R       16.1700   13.0040    6.0600 H         1 NER1        0.0000
     64 H22S       14.4530   12.4890    5.9190 H         1 NER1        0.0000
     65 C23        14.7320   14.4610    6.7790 C.3       1 NER1        0.0000
     66 H23R       13.7080   14.8100    6.5150 H         1 NER1        0.0000
     67 H23S       15.4220   15.3260    6.6530 H         1 NER1        0.0000
     68 C24        14.7490   14.0120    8.2430 C.3       1 NER1        0.0000
     69 H24R       15.7690   13.6820    8.5360 H         1 NER1        0.0000
     70 H24S       14.0490   13.1640    8.3970 H         1 NER1        0.0000
     71 H24T       14.4440   14.8460    8.9110 H         1 NER1        0.0000
@<TRIPOS>BOND
     1   42   40 1 
     2   44   43 1 
     3   36   34 1 
     4   38   37 1 
     5   43   40 1 
     6   43   45 2 
     7   30   28 1 
     8   32   31 1 
     9   40   37 1 
    10   40   41 1 
    11   24   22 1 
    12   26   25 1 
    13   46   45 1 
    14   37   34 1 
    15   37   39 1 
    16   34   31 1 
    17   34   35 1 
    18   45   47 1 
    19   18   16 1 
    20   20   19 1 
    21   31   28 1 
    22   31   33 1 
    23   28   25 1 
    24   28   29 1 
    25   14   13 1 
    26   12   10 1 
    27    8    7 1 
    28    6    4 1 
    29   25   22 1 
    30   25   27 1 
    31   48   47 1 
    32   22   19 1 
    33   22   23 1 
    34   49   47 1 
    35   47   50 1 
    36   19   16 1 
    37   19   21 1 
    38   16   13 1 
    39   16   17 1 
    40   13   10 1 
    41   13   15 1 
    42   10    7 1 
    43   10   11 1 
    44    7    4 1 
    45    7    9 1 
    46    4    3 1 
    47    4    5 1 
    48    3    2 ar
    49    3    1 ar
    50   50   52 1 
    51   50   51 1 
    52   50   53 1 
    53   54   53 1 
    54   55   53 1 
    55   53   56 1 
    56   56   58 1 
    57   56   57 1 
    58   56   59 1 
    59   60   59 1 
    60   61   59 1 
    61   59   62 1 
    62   62   64 1 
    63   62   63 1 
    64   62   65 1 
    65   66   65 1 
    66   67   65 1 
    67   65   68 1 
    68   68   70 1 
    69   68   69 1 
    70   68   71 1 
