@<TRIPOS>MOLECULE
C:\Users\Praveer\PycharmProjects\pdb_to_mol2_converter\data\pdb\nerp.pdb
   72    71     0     0     0
SMALL
GASTEIGER

@<TRIPOS>ATOM
      1 H1          0.0090   -0.0570   -0.1950 H         1 NER1        0.0000
      2 O1          0.9560   -0.0570   -0.0690 O.3       1 NER1        0.0000
      3 O2          0.5550    2.1520   -0.1660 O.2       1 NER1        0.0000
      4 C1          1.3660    1.2540   -0.0400 C.2       1 NER1        0.0000
      5 C2          2.8710    1.3940    0.1590 C.3       1 NER1        0.0000
      6 H2R         3.3840    0.8700   -0.6740 H         1 NER1        0.0000
      7 H2S         3.1430    0.8960    1.1130 H         1 NER1        0.0000
      8 C3          3.3120    2.8730    0.1980 C.3       1 NER1        0.0000
      9 H3R         2.7710    3.4030    1.0160 H         1 NER1        0.0000
     10 H3S         3.0420    3.3730   -0.7600 H         1 NER1        0.0000
     11 C4          4.8210    3.0240    0.4300 C.3       1 NER1        0.0000
     12 H4R         5.3730    2.5130   -0.3900 H         1 NER1        0.0000
     13 H4S         5.0930    2.5210    1.3860 H         1 NER1        0.0000
     14 C5          5.2640    4.4920    0.4970 C.3       1 NER1        0.0000
     15 H5R         4.6890    5.0080    1.2990 H         1 NER1        0.0000
     16 H5S         5.0230    4.9920   -0.4670 H         1 NER1        0.0000
     17 C6          6.7640    4.6440    0.7840 C.3       1 NER1        0.0000
     18 H6R         7.3450    4.1390   -0.0200 H         1 NER1        0.0000
     19 H6S         7.0020    4.1340    1.7450 H         1 NER1        0.0000
     20 C7          7.2020    6.1120    0.8770 C.3       1 NER1        0.0000
     21 H7R         6.6000    6.6210    1.6630 H         1 NER1        0.0000
     22 H7S         6.9900    6.6180   -0.0920 H         1 NER1        0.0000
     23 C8          8.6910    6.2660    1.2130 C.3       1 NER1        0.0000
     24 H8R         9.2980    5.7590    0.4300 H         1 NER1        0.0000
     25 H8S         8.8970    5.7580    2.1820 H         1 NER1        0.0000
     26 C9          9.1240    7.7340    1.3150 C.3       1 NER1        0.0000
     27 H9R         8.4930    8.2460    2.0770 H         1 NER1        0.0000
     28 H9S         8.9470    8.2370    0.3380 H         1 NER1        0.0000
     29 C10        10.6000    7.8910    1.7050 C.3       1 NER1        0.0000
     30 H10R       11.2360    7.3820    0.9460 H         1 NER1        0.0000
     31 H10S       10.7720    7.3880    2.6830 H         1 NER1        0.0000
     32 C11        11.0280    9.3610    1.8160 C.3       1 NER1        0.0000
     33 H11R       10.3670    9.8760    2.5500 H         1 NER1        0.0000
     34 H11S       10.8890    9.8570    0.8290 H         1 NER1        0.0000
     35 C12        12.4870    9.5220    2.2620 C.3       1 NER1        0.0000
     36 H12R       13.1520    9.0070    1.5320 H         1 NER1        0.0000
     37 H12S       12.6210    9.0270    3.2500 H         1 NER1        0.0000
     38 C13        12.9120   10.9930    2.3770 C.3       1 NER1        0.0000
     39 H13R       12.2230   11.5070    3.0850 H         1 NER1        0.0000
     40 H13S       12.7970   11.4760    1.3790 H         1 NER1        0.0000
     41 C14        14.3660   11.1500    2.8610 C.3       1 NER1        0.0000
     42 H14R       15.0180   10.5820    2.1600 H         1 NER1        0.0000
     43 H14S       14.4590   10.6620    3.8560 H         1 NER1        0.0000
     44 C15        14.7670   12.6020    2.9610 C.2       1 NER1        0.0000
     45 H15R       14.0910   13.2230    3.5700 H         1 NER1        0.0000
     46 C16        15.8240   13.1900    2.3680 C.2       1 NER1        0.0000
     47 H16R       15.9820   14.2690    2.5190 H         1 NER1        0.0000
     48 C17        16.8590   12.5140    1.5020 C.3       1 NER1        0.0000
     49 H17R       16.9610   11.4350    1.7540 H         1 NER1        0.0000
     50 H17S       17.8580   12.9710    1.6820 H         1 NER1        0.0000
     51 C18        16.5280   12.6300    0.0030 C.3       1 NER1        0.0000
     52 H18R       16.4530   13.7030   -0.2850 H         1 NER1        0.0000
     53 H18S       15.5410   12.1540   -0.1950 H         1 NER1        0.0000
     54 C19        17.5870   11.9540   -0.8810 C.3       1 NER1        0.0000
     55 H19R       17.6690   10.8820   -0.5930 H         1 NER1        0.0000
     56 H19S       18.5750   12.4310   -0.6960 H         1 NER1        0.0000
     57 C20        17.2560   12.0460   -2.3770 C.3       1 NER1        0.0000
     58 H20R       17.1760   13.1170   -2.6680 H         1 NER1        0.0000
     59 H20S       16.2670   11.5700   -2.5610 H         1 NER1        0.0000
     60 C21        18.3120   11.3630   -3.2580 C.3       1 NER1        0.0000
     61 H21R       18.3920   10.2920   -2.9650 H         1 NER1        0.0000
     62 H21S       19.3020   11.8380   -3.0750 H         1 NER1        0.0000
     63 C22        17.9800   11.4510   -4.7540 C.3       1 NER1        0.0000
     64 H22R       17.9030   12.5220   -5.0470 H         1 NER1        0.0000
     65 H22S       16.9890   10.9780   -4.9360 H         1 NER1        0.0000
     66 C23        19.0320   10.7660   -5.6360 C.3       1 NER1        0.0000
     67 H23R       19.1080    9.6960   -5.3360 H         1 NER1        0.0000
     68 H23S       20.0230   11.2370   -5.4430 H         1 NER1        0.0000
     69 C24        18.7170   10.8480   -7.1320 C.3       1 NER1        0.0000
     70 H24R       18.6610   11.9090   -7.4590 H         1 NER1        0.0000
     71 H24S       17.7430   10.3610   -7.3510 H         1 NER1        0.0000
     72 H24T       19.5060   10.3380   -7.7260 H         1 NER1        0.0000
@<TRIPOS>BOND
     1   72   69 1 
     2   70   69 1 
     3   71   69 1 
     4   69   66 1 
     5   66   68 1 
     6   66   67 1 
     7   66   63 1 
     8   64   63 1 
     9   65   63 1 
    10   63   60 1 
    11   60   62 1 
    12   60   61 1 
    13   60   57 1 
    14   58   57 1 
    15   59   57 1 
    16   57   54 1 
    17   54   56 1 
    18   54   55 1 
    19   54   51 1 
    20   10    8 1 
    21    6    5 1 
    22   16   14 1 
    23   12   11 1 
    24   52   51 1 
    25    1    2 1 
    26   53   51 1 
    27    3    4 2 
    28   22   20 1 
    29    2    4 1 
    30    4    5 1 
    31   18   17 1 
    32   51   48 1 
    33    5    8 1 
    34    5    7 1 
    35    8   11 1 
    36    8    9 1 
    37   28   26 1 
    38   11   14 1 
    39   11   13 1 
    40   24   23 1 
    41   14   17 1 
    42   14   15 1 
    43   17   20 1 
    44   17   19 1 
    45   34   32 1 
    46   20   23 1 
    47   20   21 1 
    48   30   29 1 
    49   23   26 1 
    50   23   25 1 
    51   26   29 1 
    52   26   27 1 
    53   40   38 1 
    54   48   50 1 
    55   48   49 1 
    56   48   46 1 
    57   36   35 1 
    58   29   32 1 
    59   29   31 1 
    60   32   35 1 
    61   32   33 1 
    62   42   41 1 
    63   35   38 1 
    64   35   37 1 
    65   46   47 1 
    66   46   44 2 
    67   38   41 1 
    68   38   39 1 
    69   41   44 1 
    70   41   43 1 
    71   44   45 1 
