@<TRIPOS>MOLECULE
C:\Users\Praveer\PycharmProjects\pdb_to_mol2_converter\data\pdb\nesm.pdb
   13    12     0     0     0
SMALL
GASTEIGER

@<TRIPOS>ATOM
      1 S1         -0.1210   -0.0490    0.0440 S.3       1 NES1        0.0000
      2 O11        -0.8580    0.6370    1.0820 O.3       1 NES1        0.0000
      3 O12        -0.3140    0.4730   -1.2920 O.3       1 NES1        0.0000
      4 O13        -0.1940   -1.4930    0.1130 O.3       1 NES1        0.0000
      5 N2          1.5350    0.0590    0.3240 N.3       1 NES1        0.0000
      6 H21         1.9280   -0.6270   -0.3160 H         1 NES1        0.0000
      7 C3          2.0960    1.3870    0.1010 C.3       1 NES1        0.0000
      8 H31         1.7410    1.8000   -0.8720 H         1 NES1        0.0000
      9 H32         3.1930    1.2210    0.0250 H         1 NES1        0.0000
     10 C4          1.8060    2.3520    1.2500 C.3       1 NES1        0.0000
     11 H41         2.0920    1.8980    2.2230 H         1 NES1        0.0000
     12 H42         0.7210    2.5880    1.2860 H         1 NES1        0.0000
     13 H43         2.3650    3.2990    1.1130 H         1 NES1        0.0000
@<TRIPOS>BOND
     1    3    1 1 
     2    8    7 1 
     3    6    5 1 
     4    9    7 1 
     5    1    4 1 
     6    1    5 1 
     7    1    2 1 
     8    7    5 1 
     9    7   10 1 
    10   13   10 1 
    11   10   12 1 
    12   10   11 1 
