@<TRIPOS>MOLECULE
C:\Users\Praveer\PycharmProjects\pdb_to_mol2_converter\data\pdb\nglipb.pdb
  293   294     0     0     0
SMALL
GASTEIGER

@<TRIPOS>ATOM
      1 HB6S       -8.0070    2.4130    0.9040 H         1 NGL1        0.0000
      2 OB6        -6.8210    1.0110    1.8660 O.3       1 NGL1        0.0000
      3 HOB6       -6.0170    0.5160    1.6710 H         1 NGL1        0.0000
      4 CB6        -7.1560    1.7310    0.6770 C.3       1 NGL1        0.0000
      5 HB6R       -7.4960    1.0200   -0.1080 H         1 NGL1        0.0000
      6 CB5        -5.9660    2.5290    0.1860 C.3       1 NGL1        0.0000
      7 OB5        -4.8310    1.6560    0.0400 O.3       1 NGL1        0.0000
      8 HB5        -5.7560    3.2990    0.9680 H         1 NGL1        0.0000
      9 CB1        -3.6290    2.4140   -0.1170 C.3       1 NGL1        0.0000
     10 HB1        -3.5020    3.1100    0.7430 H         1 NGL1        0.0000
     11 OA6        -2.4850    1.6070   -0.2360 O.3       1 NGL1        0.0000
     12 CA6        -2.1690    0.8750    0.9520 C.3       1 NGL1        0.0000
     13 HA6R       -2.5970   -0.1490    0.8800 H         1 NGL1        0.0000
     14 HA6S       -2.5960    1.3670    1.8530 H         1 NGL1        0.0000
     15 ND        -10.4170    2.9500   -4.6930 N.4       1 NGL1        0.0000
     16 HND1       -9.9580    3.0450   -5.6100 H         1 NGL1        0.0000
     17 HND2      -10.8950    2.0380   -4.5620 H         1 NGL1        0.0000
     18 HND3       -9.6620    2.9550   -3.9410 H         1 NGL1        0.0000
     19 CD2       -11.3800    4.0440   -4.3550 C.3       1 NGL1        0.0000
     20 HD21      -11.9730    4.2870   -5.2470 H         1 NGL1        0.0000
     21 HD22      -10.8010    4.9410   -4.0890 H         1 NGL1        0.0000
     22 CB4        -6.1510    3.2260   -1.1500 C.3       1 NGL1        0.0000
     23 HB4        -6.2800    2.4520   -1.9480 H         1 NGL1        0.0000
     24 CD1       -12.3000    3.6270   -3.1850 C.3       1 NGL1        0.0000
     25 HD11      -13.1780    3.0930   -3.6090 H         1 NGL1        0.0000
     26 HD12      -12.7070    4.5530   -2.7110 H         1 NGL1        0.0000
     27 OD2       -11.6610    2.7420   -2.2630 O.3       1 NGL1        0.0000
     28 PD        -11.2720    3.2210   -0.7240 P.3       1 NGL1        0.0000
     29 OD1        -9.6890    3.5120   -0.7980 O.3       1 NGL1        0.0000
     30 OPD3      -11.4920    2.0390    0.1980 O.3       1 NGL1        0.0000
     31 OPD4      -12.0010    4.5210   -0.4190 O.2       1 NGL1        0.0000
     32 PB         -8.6270    3.9450   -1.9100 P.3       1 NGL1        0.0000
     33 OB4        -7.2530    4.1230   -1.0360 O.3       1 NGL1        0.0000
     34 OPB3       -8.5040    2.7900   -2.9100 O.2       1 NGL1        0.0000
     35 OPB4       -9.0230    5.2630   -2.5390 O.3       1 NGL1        0.0000
     36 CB3        -4.9190    4.0470   -1.4610 C.3       1 NGL1        0.0000
     37 OB3        -5.0750    4.6090   -2.7680 O.3       1 NGL1        0.0000
     38 HB3        -4.8060    4.8090   -0.6460 H         1 NGL1        0.0000
     39 C71        -5.3480    5.8990   -2.8150 C.2       1 NGL1        0.0000
     40 O71        -5.1820    6.7040   -1.8920 O.2       1 NGL1        0.0000
     41 C72        -5.7090    6.2940   -4.2240 C.3       1 NGL1        0.0000
     42 H72R       -6.7300    5.9100   -4.4310 H         1 NGL1        0.0000
     43 H72S       -4.9890    5.8430   -4.9370 H         1 NGL1        0.0000
     44 CB2        -3.6660    3.2030   -1.4100 C.3       1 NGL1        0.0000
     45 HB2        -3.7200    2.4620   -2.2490 H         1 NGL1        0.0000
     46 NB2        -2.4480    3.9980   -1.5370 N.am      1 NGL1        0.0000
     47 HNB2       -2.0810    4.3510   -0.6850 H         1 NGL1        0.0000
     48 CA4         0.0030    2.1630    1.1550 C.3       1 NGL1        0.0000
     49 HA4        -0.2840    2.7110    0.2260 H         1 NGL1        0.0000
     50 OA4        -0.4970    2.8870    2.2760 O.3       1 NGL1        0.0000
     51 HOA4       -0.2020    3.8030    2.1470 H         1 NGL1        0.0000
     52 CA5        -0.6570    0.7920    1.0890 C.3       1 NGL1        0.0000
     53 HA5        -0.4170    0.2220    2.0170 H         1 NGL1        0.0000
     54 OA5        -0.1600    0.0490   -0.0340 O.3       1 NGL1        0.0000
     55 CA1         1.2660   -0.1390   -0.0190 C.3       1 NGL1        0.0000
     56 HA1         1.4860   -0.6360   -0.9980 H         1 NGL1        0.0000
     57 OA1         1.6550   -0.9660    1.0680 O.3       1 NGL1        0.0000
     58 OPA2        2.8420   -2.9320    2.1140 O.3       1 NGL1        0.0000
     59 OPA3        2.5300   -2.8050   -0.4210 O.2       1 NGL1        0.0000
     60 OPA4        4.1430   -1.2310    0.7370 O.3       1 NGL1        0.0000
     61 PA          2.8700   -2.0710    0.8660 P.3       1 NGL1        0.0000
     62 CA3         1.5200    2.0390    1.1710 C.3       1 NGL1        0.0000
     63 HA3         1.7910    1.4450    2.0800 H         1 NGL1        0.0000
     64 OA3         2.3590    3.2000    1.1870 O.3       1 NGL1        0.0000
     65 C31         1.9720    4.4460    1.1270 C.2       1 NGL1        0.0000
     66 O31         0.8410    4.8730    1.1900 O.2       1 NGL1        0.0000
     67 C32         3.2320    5.2920    1.3170 C.3       1 NGL1        0.0000
     68 H32R        3.9550    5.0020    0.5250 H         1 NGL1        0.0000
     69 H32S        3.6700    5.0460    2.3040 H         1 NGL1        0.0000
     70 CA2         1.9430    1.2160   -0.0260 C.3       1 NGL1        0.0000
     71 HA2         1.5400    1.7460   -0.9290 H         1 NGL1        0.0000
     72 NA2         3.3690    1.0750   -0.2170 N.am      1 NGL1        0.0000
     73 HNA2        3.7150    0.1740    0.1490 H         1 NGL1        0.0000
     74 C73        -5.6710    7.8180   -4.3290 C.3       1 NGL1        0.0000
     75 H73R       -6.2630    8.2890   -3.5070 H         1 NGL1        0.0000
     76 O73        -6.2600    8.1570   -5.5710 O.3       1 NGL1        0.0000
     77 HO73       -7.1660    7.8560   -5.6700 H         1 NGL1        0.0000
     78 C74        -4.2400    8.3830   -4.3070 C.3       1 NGL1        0.0000
     79 H74R       -3.6700    8.0340   -5.1940 H         1 NGL1        0.0000
     80 H74S       -3.7260    7.9720   -3.4080 H         1 NGL1        0.0000
     81 C75        -4.1770    9.9140   -4.2100 C.3       1 NGL1        0.0000
     82 H75R       -5.1450   10.3130   -3.8280 H         1 NGL1        0.0000
     83 H75S       -3.9920   10.3550   -5.2150 H         1 NGL1        0.0000
     84 C76        -3.0870   10.3290   -3.2270 C.3       1 NGL1        0.0000
     85 H76R       -2.1120    9.8940   -3.5420 H         1 NGL1        0.0000
     86 H76S       -3.3270    9.8960   -2.2280 H         1 NGL1        0.0000
     87 C77        -2.9370   11.8380   -3.0600 C.3       1 NGL1        0.0000
     88 H77R       -3.8860   12.2800   -2.6850 H         1 NGL1        0.0000
     89 H77S       -2.7120   12.2910   -4.0530 H         1 NGL1        0.0000
     90 C78        -1.7780   12.0920   -2.0960 C.3       1 NGL1        0.0000
     91 H78R       -0.9100   11.5270   -2.5130 H         1 NGL1        0.0000
     92 H78S       -2.0130   11.6820   -1.0870 H         1 NGL1        0.0000
     93 C79        -1.3340   13.5480   -1.9890 C.3       1 NGL1        0.0000
     94 H79R       -2.0170   14.1470   -1.3580 H         1 NGL1        0.0000
     95 H79S       -1.3890   14.0190   -2.9920 H         1 NGL1        0.0000
     96 C710        0.1120   13.6220   -1.4850 C.3       1 NGL1        0.0000
     97 H710        0.7410   13.0090   -2.1750 H         1 NGL1        0.0000
     98 H710        0.1690   13.2000   -0.4530 H         1 NGL1        0.0000
     99 C711        0.6700   15.0420   -1.5060 C.3       1 NGL1        0.0000
    100 H711        0.2950   15.5880   -0.6110 H         1 NGL1        0.0000
    101 H711        0.2700   15.5580   -2.4090 H         1 NGL1        0.0000
    102 C712        2.1980   15.0970   -1.5470 C.3       1 NGL1        0.0000
    103 H712        2.5830   14.6810   -2.5040 H         1 NGL1        0.0000
    104 H712        2.6350   14.5070   -0.7140 H         1 NGL1        0.0000
    105 H712        2.5410   16.1490   -1.4580 H         1 NGL1        0.0000
    106 C51        -1.6960    4.1170   -2.6350 C.2       1 NGL1        0.0000
    107 O51        -2.0830    3.7870   -3.7550 O.2       1 NGL1        0.0000
    108 C52        -0.2920    4.6430   -2.4030 C.3       1 NGL1        0.0000
    109 H52R        0.2990    3.8160   -1.9510 H         1 NGL1        0.0000
    110 H52S       -0.3260    5.4860   -1.6840 H         1 NGL1        0.0000
    111 C53         0.4040    5.0850   -3.7040 C.3       1 NGL1        0.0000
    112 H53R        0.3090    4.2550   -4.4500 H         1 NGL1        0.0000
    113 O53         1.7730    5.3440   -3.3470 O.3       1 NGL1        0.0000
    114 C61         2.6780    4.9580   -4.2480 C.2       1 NGL1        0.0000
    115 O61         2.4190    4.4860   -5.3530 O.2       1 NGL1        0.0000
    116 C62         4.0930    5.2300   -3.7500 C.3       1 NGL1        0.0000
    117 H62R        4.7940    4.6910   -4.4150 H         1 NGL1        0.0000
    118 H62S        4.1710    4.8030   -2.7310 H         1 NGL1        0.0000
    119 C63         4.4790    6.7210   -3.6900 C.3       1 NGL1        0.0000
    120 H63R        5.4600    6.8030   -3.1670 H         1 NGL1        0.0000
    121 H63S        3.7330    7.2600   -3.0760 H         1 NGL1        0.0000
    122 C64         4.6130    7.3990   -5.0590 C.3       1 NGL1        0.0000
    123 H64R        3.6420    7.3450   -5.5990 H         1 NGL1        0.0000
    124 H64S        5.3680    6.8560   -5.6700 H         1 NGL1        0.0000
    125 C65         5.0310    8.8680   -4.9080 C.3       1 NGL1        0.0000
    126 H65R        6.0480    8.9040   -4.4560 H         1 NGL1        0.0000
    127 H65S        4.3420    9.3740   -4.1990 H         1 NGL1        0.0000
    128 C66         5.0440    9.6610   -6.2210 C.3       1 NGL1        0.0000
    129 H66R        4.0560    9.5970   -6.7300 H         1 NGL1        0.0000
    130 H66S        5.8020    9.1990   -6.8920 H         1 NGL1        0.0000
    131 C67         5.4040   11.1350   -5.9720 C.3       1 NGL1        0.0000
    132 H67R        6.1320   11.1600   -5.1260 H         1 NGL1        0.0000
    133 H67S        4.5100   11.7030   -5.6420 H         1 NGL1        0.0000
    134 C68         6.0750   11.8240   -7.1670 C.3       1 NGL1        0.0000
    135 H68R        6.3830   11.0660   -7.9200 H         1 NGL1        0.0000
    136 H68S        7.0010   12.3210   -6.7940 H         1 NGL1        0.0000
    137 C69         5.2440   12.9190   -7.8450 C.3       1 NGL1        0.0000
    138 H69R        5.0470   13.7180   -7.0940 H         1 NGL1        0.0000
    139 H69S        4.2640   12.5190   -8.1840 H         1 NGL1        0.0000
    140 C610        6.0100   13.5180   -9.0360 C.3       1 NGL1        0.0000
    141 H610        5.7410   12.9700   -9.9660 H         1 NGL1        0.0000
    142 H610        7.1000   13.3620   -8.8680 H         1 NGL1        0.0000
    143 C611        5.7950   15.0230   -9.2260 C.3       1 NGL1        0.0000
    144 H611        6.0550   15.5420   -8.2750 H         1 NGL1        0.0000
    145 H611        4.7200   15.2190   -9.4350 H         1 NGL1        0.0000
    146 C612        6.6560   15.5980  -10.3550 C.3       1 NGL1        0.0000
    147 H612        6.3800   15.1370  -11.3270 H         1 NGL1        0.0000
    148 H612        7.7320   15.3900  -10.1640 H         1 NGL1        0.0000
    149 H612        6.5220   16.6980  -10.4320 H         1 NGL1        0.0000
    150 C54        -0.2290    6.3700   -4.3040 C.3       1 NGL1        0.0000
    151 H54R       -0.2940    7.1480   -3.5140 H         1 NGL1        0.0000
    152 H54S       -1.2630    6.1210   -4.6300 H         1 NGL1        0.0000
    153 C55         0.5390    6.9400   -5.5110 C.3       1 NGL1        0.0000
    154 H55R        0.7920    6.1010   -6.1980 H         1 NGL1        0.0000
    155 H55S        1.4910    7.3840   -5.1460 H         1 NGL1        0.0000
    156 C56        -0.2210    7.9880   -6.3310 C.3       1 NGL1        0.0000
    157 H56R       -0.4320    8.8740   -5.6960 H         1 NGL1        0.0000
    158 H56S       -1.2020    7.5660   -6.6460 H         1 NGL1        0.0000
    159 C57         0.5650    8.4080   -7.5860 C.3       1 NGL1        0.0000
    160 H57R        0.1520    7.8660   -8.4660 H         1 NGL1        0.0000
    161 H57S        1.6310    8.1020   -7.4740 H         1 NGL1        0.0000
    162 C58         0.5400    9.9180   -7.8520 C.3       1 NGL1        0.0000
    163 H58R        1.2050   10.4150   -7.1120 H         1 NGL1        0.0000
    164 H58S       -0.4930   10.3030   -7.7030 H         1 NGL1        0.0000
    165 C59         1.0060   10.2860   -9.2690 C.3       1 NGL1        0.0000
    166 H59R        0.2670    9.8910  -10.0020 H         1 NGL1        0.0000
    167 H59S        1.9830    9.7920   -9.4640 H         1 NGL1        0.0000
    168 C510        1.1550   11.8010   -9.4610 C.3       1 NGL1        0.0000
    169 H510        1.7750   12.2050   -8.6290 H         1 NGL1        0.0000
    170 H510        0.1450   12.2630   -9.3940 H         1 NGL1        0.0000
    171 C511        1.8170   12.2180  -10.7810 C.3       1 NGL1        0.0000
    172 H511        1.3850   11.6290  -11.6220 H         1 NGL1        0.0000
    173 H511        2.9040   11.9850  -10.7180 H         1 NGL1        0.0000
    174 C512        1.6200   13.7160  -11.0690 C.3       1 NGL1        0.0000
    175 H512        1.7720   14.3030  -10.1350 H         1 NGL1        0.0000
    176 H512        0.5620   13.8680  -11.3840 H         1 NGL1        0.0000
    177 C513        2.5540   14.2690  -12.1540 C.3       1 NGL1        0.0000
    178 H513        2.8750   13.4360  -12.8190 H         1 NGL1        0.0000
    179 H513        3.4710   14.6740  -11.6670 H         1 NGL1        0.0000
    180 C514        1.9040   15.3570  -13.0160 C.3       1 NGL1        0.0000
    181 H514        1.5210   16.1840  -12.3810 H         1 NGL1        0.0000
    182 H514        1.0510   14.9310  -13.5880 H         1 NGL1        0.0000
    183 H514        2.6360   15.7760  -13.7390 H         1 NGL1        0.0000
    184 C33         2.9520    6.8020    1.2310 C.3       1 NGL1        0.0000
    185 H33R        3.9110    7.3420    1.4260 H         1 NGL1        0.0000
    186 O33         2.0340    7.1850    2.2360 O.3       1 NGL1        0.0000
    187 HO33        1.1760    6.7530    2.1470 H         1 NGL1        0.0000
    188 C34         2.4390    7.2440   -0.1440 C.3       1 NGL1        0.0000
    189 H34R        1.4540    6.7790   -0.3730 H         1 NGL1        0.0000
    190 H34S        3.1650    6.8670   -0.9020 H         1 NGL1        0.0000
    191 C35         2.3030    8.7650   -0.3240 C.3       1 NGL1        0.0000
    192 H35R        3.1390    9.3030    0.1770 H         1 NGL1        0.0000
    193 H35S        1.3490    9.1060    0.1360 H         1 NGL1        0.0000
    194 C36         2.3270    9.0860   -1.8160 C.3       1 NGL1        0.0000
    195 H36R        1.8400    8.2400   -2.3590 H         1 NGL1        0.0000
    196 H36S        3.3830    9.1490   -2.1560 H         1 NGL1        0.0000
    197 C37         1.6170   10.3600   -2.2580 C.3       1 NGL1        0.0000
    198 H37R        2.2020   11.2450   -1.9330 H         1 NGL1        0.0000
    199 H37S        0.6220   10.4080   -1.7720 H         1 NGL1        0.0000
    200 C38         1.4600   10.3290   -3.7850 C.3       1 NGL1        0.0000
    201 H38R        0.4850    9.8630   -4.0430 H         1 NGL1        0.0000
    202 H38S        2.2390    9.6370   -4.1830 H         1 NGL1        0.0000
    203 C39         1.6870   11.6580   -4.5140 C.3       1 NGL1        0.0000
    204 H39R        2.2870   11.4200   -5.4240 H         1 NGL1        0.0000
    205 H39S        2.2800   12.3690   -3.8940 H         1 NGL1        0.0000
    206 C310        0.4010   12.3200   -5.0120 C.3       1 NGL1        0.0000
    207 H310       -0.0540   12.8770   -4.1760 H         1 NGL1        0.0000
    208 H310       -0.3510   11.5590   -5.3130 H         1 NGL1        0.0000
    209 C311        0.6510   13.2720   -6.1850 C.3       1 NGL1        0.0000
    210 H311        0.2760   12.7810   -7.1130 H         1 NGL1        0.0000
    211 H311        1.7490   13.4460   -6.2910 H         1 NGL1        0.0000
    212 C312       -0.0400   14.6230   -6.0230 C.3       1 NGL1        0.0000
    213 H312        0.4150   15.1950   -5.1870 H         1 NGL1        0.0000
    214 H312       -1.1240   14.4850   -5.8160 H         1 NGL1        0.0000
    215 H312        0.0720   15.2170   -6.9540 H         1 NGL1        0.0000
    216 C11         4.0760    1.7150   -1.1290 C.2       1 NGL1        0.0000
    217 O11         3.8970    2.9210   -1.3630 O.2       1 NGL1        0.0000
    218 C12         5.0250    0.8730   -1.9600 C.3       1 NGL1        0.0000
    219 H12R        4.3930    0.1510   -2.5230 H         1 NGL1        0.0000
    220 H12S        5.6750    0.2800   -1.2820 H         1 NGL1        0.0000
    221 C13         5.8520    1.7290   -2.9420 C.3       1 NGL1        0.0000
    222 H13R        5.3070    2.6720   -3.1820 H         1 NGL1        0.0000
    223 O13         6.1330    0.9450   -4.1180 O.3       1 NGL1        0.0000
    224 C21         5.6290    1.4300   -5.2570 C.2       1 NGL1        0.0000
    225 O21         5.0010    2.4500   -5.3800 O.2       1 NGL1        0.0000
    226 C22         6.0450    0.5480   -6.4390 C.3       1 NGL1        0.0000
    227 H22S        5.1580    0.4390   -7.0970 H         1 NGL1        0.0000
    228 H22R        6.3150   -0.4540   -6.0460 H         1 NGL1        0.0000
    229 C23         7.2300    1.1370   -7.2460 C.3       1 NGL1        0.0000
    230 H23R        7.6040    0.3280   -7.9170 H         1 NGL1        0.0000
    231 H23S        8.0640    1.4090   -6.5620 H         1 NGL1        0.0000
    232 C24         6.8820    2.3400   -8.1450 C.3       1 NGL1        0.0000
    233 H24R        6.6010    3.2140   -7.5160 H         1 NGL1        0.0000
    234 H24S        6.0020    2.0840   -8.7770 H         1 NGL1        0.0000
    235 C25         8.0600    2.7190   -9.0610 C.3       1 NGL1        0.0000
    236 H25R        8.3730    1.8110   -9.6250 H         1 NGL1        0.0000
    237 H25S        8.9200    3.0360   -8.4300 H         1 NGL1        0.0000
    238 C26         7.7560    3.8240  -10.0870 C.3       1 NGL1        0.0000
    239 H26R        7.3780    4.7320   -9.5660 H         1 NGL1        0.0000
    240 H26S        6.9520    3.4650  -10.7680 H         1 NGL1        0.0000
    241 C27         8.9960    4.2030  -10.9190 C.3       1 NGL1        0.0000
    242 H27R        9.5810    3.2840  -11.1520 H         1 NGL1        0.0000
    243 H27S        9.6460    4.8580  -10.2950 H         1 NGL1        0.0000
    244 C28         8.6700    4.9140  -12.2440 C.3       1 NGL1        0.0000
    245 H28R        7.6470    5.3470  -12.1950 H         1 NGL1        0.0000
    246 H28S        8.6740    4.1610  -13.0640 H         1 NGL1        0.0000
    247 C29         9.6590    6.0400  -12.5850 C.3       1 NGL1        0.0000
    248 H29R       10.6940    5.6310  -12.5690 H         1 NGL1        0.0000
    249 H29S        9.5940    6.8280  -11.8020 H         1 NGL1        0.0000
    250 C210        9.3930    6.6730  -13.9600 C.3       1 NGL1        0.0000
    251 H210        8.3980    7.1710  -13.9450 H         1 NGL1        0.0000
    252 H210        9.3580    5.8690  -14.7290 H         1 NGL1        0.0000
    253 C211       10.4630    7.6940  -14.3720 C.3       1 NGL1        0.0000
    254 H211       11.4480    7.1750  -14.4250 H         1 NGL1        0.0000
    255 H211       10.5430    8.4790  -13.5860 H         1 NGL1        0.0000
    256 C212       10.1750    8.3600  -15.7210 C.3       1 NGL1        0.0000
    257 H212        9.2430    8.9620  -15.6660 H         1 NGL1        0.0000
    258 H212       10.0490    7.5920  -16.5150 H         1 NGL1        0.0000
    259 H212       11.0100    9.0320  -16.0140 H         1 NGL1        0.0000
    260 C14         7.1930    2.1320   -2.2890 C.3       1 NGL1        0.0000
    261 H14R        7.6660    1.2110   -1.8800 H         1 NGL1        0.0000
    262 H14S        6.9650    2.8030   -1.4320 H         1 NGL1        0.0000
    263 C15         8.2100    2.8210   -3.2170 C.3       1 NGL1        0.0000
    264 H15R        8.5630    2.0970   -3.9860 H         1 NGL1        0.0000
    265 H15S        9.0910    3.1080   -2.5990 H         1 NGL1        0.0000
    266 C16         7.6740    4.0750   -3.9200 C.3       1 NGL1        0.0000
    267 H16R        7.0020    4.6320   -3.2310 H         1 NGL1        0.0000
    268 H16S        7.0730    3.7760   -4.8060 H         1 NGL1        0.0000
    269 C17         8.7990    5.0080   -4.3800 C.3       1 NGL1        0.0000
    270 H17R        9.5460    4.4200   -4.9570 H         1 NGL1        0.0000
    271 H17S        9.3100    5.4190   -3.4810 H         1 NGL1        0.0000
    272 C18         8.2940    6.1650   -5.2520 C.3       1 NGL1        0.0000
    273 H18R        7.5460    6.7510   -4.6710 H         1 NGL1        0.0000
    274 H18S        7.7810    5.7540   -6.1510 H         1 NGL1        0.0000
    275 C19         9.4310    7.0950   -5.6900 C.3       1 NGL1        0.0000
    276 H19R       10.1640    6.5280   -6.3060 H         1 NGL1        0.0000
    277 H19S        9.9620    7.4530   -4.7780 H         1 NGL1        0.0000
    278 C110        8.9370    8.3140   -6.4780 C.3       1 NGL1        0.0000
    279 H110        8.0990    8.7850   -5.9170 H         1 NGL1        0.0000
    280 H110        8.5410    7.9880   -7.4650 H         1 NGL1        0.0000
    281 C111       10.0400    9.3630   -6.6770 C.3       1 NGL1        0.0000
    282 H111       10.8620    8.9370   -7.2920 H         1 NGL1        0.0000
    283 H111       10.4620    9.6230   -5.6790 H         1 NGL1        0.0000
    284 C112        9.5110   10.6450   -7.3280 C.3       1 NGL1        0.0000
    285 H112        8.6300   10.9820   -6.7410 H         1 NGL1        0.0000
    286 H112        9.1690   10.4270   -8.3640 H         1 NGL1        0.0000
    287 C113       10.5370   11.7840   -7.3490 C.3       1 NGL1        0.0000
    288 H113       11.4360   11.4510   -7.9160 H         1 NGL1        0.0000
    289 H113       10.8600   11.9920   -6.3030 H         1 NGL1        0.0000
    290 C114        9.9950   13.0750   -7.9700 C.3       1 NGL1        0.0000
    291 H114        9.1020   13.4310   -7.4120 H         1 NGL1        0.0000
    292 H114        9.7010   12.9040   -9.0280 H         1 NGL1        0.0000
    293 H114       10.7650   13.8750   -7.9440 H         1 NGL1        0.0000
@<TRIPOS>BOND
     1  258  256 1 
     2  259  256 1 
     3  256  257 1 
     4  256  253 1 
     5  252  250 1 
     6  254  253 1 
     7  253  250 1 
     8  253  255 1 
     9  250  251 1 
    10  250  247 1 
    11  183  180 1 
    12  182  180 1 
    13  246  244 1 
    14  180  181 1 
    15  180  177 1 
    16  178  177 1 
    17  247  248 1 
    18  247  244 1 
    19  247  249 1 
    20  244  245 1 
    21  244  241 1 
    22  177  179 1 
    23  177  174 1 
    24  172  171 1 
    25  176  174 1 
    26  147  146 1 
    27  242  241 1 
    28  174  171 1 
    29  174  175 1 
    30  241  243 1 
    31  241  238 1 
    32  171  173 1 
    33  171  168 1 
    34  240  238 1 
    35  149  146 1 
    36  146  148 1 
    37  146  143 1 
    38  238  239 1 
    39  238  235 1 
    40  166  165 1 
    41  141  140 1 
    42  236  235 1 
    43  167  165 1 
    44  168  170 1 
    45  168  165 1 
    46  168  169 1 
    47  145  143 1 
    48  165  162 1 
    49  143  140 1 
    50  143  144 1 
    51  235  237 1 
    52  235  232 1 
    53  140  142 1 
    54  140  137 1 
    55  292  290 1 
    56  234  232 1 
    57  160  159 1 
    58  286  284 1 
    59  139  137 1 
    60  232  233 1 
    61  232  229 1 
    62  290  293 1 
    63  290  291 1 
    64  290  287 1 
    65  135  134 1 
    66  230  229 1 
    67  288  287 1 
    68  162  164 1 
    69  162  159 1 
    70  162  163 1 
    71  137  134 1 
    72  137  138 1 
    73  159  161 1 
    74  159  156 1 
    75  280  278 1 
    76  287  284 1 
    77  287  289 1 
    78  284  285 1 
    79  284  281 1 
    80  282  281 1 
    81  229  231 1 
    82  229  226 1 
    83  134  136 1 
    84  134  131 1 
    85  210  209 1 
    86  227  226 1 
    87  215  212 1 
    88  130  128 1 
    89  129  128 1 
    90  281  278 1 
    91  281  283 1 
    92  158  156 1 
    93  278  279 1 
    94  278  275 1 
    95  226  228 1 
    96  226  224 1 
    97  156  157 1 
    98  156  153 1 
    99  276  275 1 
   100  211  209 1 
   101  128  131 1 
   102  128  125 1 
   103  154  153 1 
   104  209  212 1 
   105  209  206 1 
   106  274  272 1 
   107  212  214 1 
   108  212  213 1 
   109  131  133 1 
   110  131  132 1 
   111  275  272 1 
   112  275  277 1 
   113   77   76 1 
   114  124  122 1 
   115   16   15 1 
   116  123  122 1 
   117   76   74 1 
   118  153  155 1 
   119  153  150 1 
   120  204  203 1 
   121  225  224 2 
   122  115  114 2 
   123  208  206 1 
   124  224  223 1 
   125  272  273 1 
   126  272  269 1 
   127   20   19 1 
   128   83   81 1 
   129   79   78 1 
   130  122  125 1 
   131  122  119 1 
   132  206  203 1 
   133  206  207 1 
   134  270  269 1 
   135   43   41 1 
   136  125  126 1 
   137  125  127 1 
   138  268  266 1 
   139   15   17 1 
   140   15   19 1 
   141   15   18 1 
   142  152  150 1 
   143  203  205 1 
   144  203  200 1 
   145  112  111 1 
   146   42   41 1 
   147  117  116 1 
   148  269  266 1 
   149  269  271 1 
   150   19   21 1 
   151   19   24 1 
   152   74   78 1 
   153   74   41 1 
   154   74   75 1 
   155   78   81 1 
   156   78   80 1 
   157  150  111 1 
   158  150  151 1 
   159  114  116 1 
   160  114  113 1 
   161   41   39 1 
   162   81   82 1 
   163   81   84 1 
   164  202  200 1 
   165  223  221 1 
   166   89   87 1 
   167  201  200 1 
   168  264  263 1 
   169  266  267 1 
   170  266  263 1 
   171  200  197 1 
   172  107  106 2 
   173  116  119 1 
   174  116  118 1 
   175  111  113 1 
   176  111  108 1 
   177  119  120 1 
   178  119  121 1 
   179   25   24 1 
   180   85   84 1 
   181   84   87 1 
   182   84   86 1 
   183  263  265 1 
   184  263  260 1 
   185   24   26 1 
   186   24   27 1 
   187  222  221 1 
   188   87   88 1 
   189   87   90 1 
   190   95   93 1 
   191  221  260 1 
   192  221  218 1 
   193   34   32 2 
   194   39   37 1 
   195   39   40 2 
   196   37   36 1 
   197  106  108 1 
   198  106   46 am
   199   35   32 1 
   200  219  218 1 
   201   91   90 1 
   202  103  102 1 
   203  101   99 1 
   204  108  109 1 
   205  108  110 1 
   206  195  194 1 
   207  260  261 1 
   208  260  262 1 
   209   27   28 1 
   210  197  198 1 
   211  197  194 1 
   212  197  199 1 
   213   45   44 1 
   214   97   96 1 
   215  196  194 1 
   216   90   93 1 
   217   90   92 1 
   218   93   96 1 
   219   93   94 1 
   220  218  220 1 
   221  218  216 1 
   222   23   22 1 
   223   32   33 1 
   224   32   29 1 
   225  194  191 1 
   226  102   99 1 
   227  102  105 1 
   228  102  104 1 
   229   46   44 1 
   230   46   47 1 
   231   99   96 1 
   232   99  100 1 
   233   96   98 1 
   234   36   44 1 
   235   36   22 1 
   236   36   38 1 
   237   44    9 1 
   238  217  216 2 
   239   22   33 1 
   240   22    6 1 
   241  216   72 am
   242   56   55 1 
   243   71   70 1 
   244  190  188 1 
   245   29   28 1 
   246   28   31 2 
   247   28   30 1 
   248   59   61 2 
   249  189  188 1 
   250  191  188 1 
   251  191  193 1 
   252  191  192 1 
   253   11    9 1 
   254   11   12 1 
   255   72   70 1 
   256   72   73 1 
   257  188  184 1 
   258    9    7 1 
   259    9   10 1 
   260    5    4 1 
   261   54   55 1 
   262   54   52 1 
   263   70   55 1 
   264   70   62 1 
   265   55   57 1 
   266    7    6 1 
   267    6    4 1 
   268    6    8 1 
   269   49   48 1 
   270   68   67 1 
   271    4    1 1 
   272    4    2 1 
   273   60   61 1 
   274   61   57 1 
   275   61   58 1 
   276   13   12 1 
   277   12   52 1 
   278   12   14 1 
   279   52   48 1 
   280   52   53 1 
   281   65   64 1 
   282   65   66 2 
   283   65   67 1 
   284   48   62 1 
   285   48   50 1 
   286   62   64 1 
   287   62   63 1 
   288  184   67 1 
   289  184  185 1 
   290  184  186 1 
   291   67   69 1 
   292    3    2 1 
   293   51   50 1 
   294  187  186 1 
