@<TRIPOS>MOLECULE
C:\Users\Praveer\PycharmProjects\pdb_to_mol2_converter\data\pdb\nglipc.pdb
  307   308     0     0     0
SMALL
GASTEIGER

@<TRIPOS>ATOM
      1 HB6S       -7.9420    2.4400    0.9430 H         1 NGL1        0.0000
      2 OB6        -6.7700    1.0130    1.8970 O.3       1 NGL1        0.0000
      3 HOB6       -6.0190    0.4540    1.6770 H         1 NGL1        0.0000
      4 CB6        -7.1150    1.7310    0.7080 C.3       1 NGL1        0.0000
      5 HB6R       -7.4900    1.0220   -0.0620 H         1 NGL1        0.0000
      6 CB5        -5.9180    2.4970    0.1840 C.3       1 NGL1        0.0000
      7 OB5        -4.7930    1.6100    0.0280 O.3       1 NGL1        0.0000
      8 HB5        -5.6780    3.2730    0.9530 H         1 NGL1        0.0000
      9 CB1        -3.5820    2.3530   -0.1400 C.3       1 NGL1        0.0000
     10 HB1        -3.4390    3.0450    0.7210 H         1 NGL1        0.0000
     11 OA6        -2.4490    1.5310   -0.2620 O.3       1 NGL1        0.0000
     12 CA6        -2.1440    0.8050    0.9320 C.3       1 NGL1        0.0000
     13 HA6R       -2.5670   -0.2220    0.8560 H         1 NGL1        0.0000
     14 HA6S       -2.5920    1.2950    1.8240 H         1 NGL1        0.0000
     15 ND        -10.4380    2.9440   -4.7180 N.4       1 NGL1        0.0000
     16 HND1       -9.9890    3.0490   -5.6390 H         1 NGL1        0.0000
     17 HND2      -10.9080    2.0270   -4.5960 H         1 NGL1        0.0000
     18 HND3       -9.6800    2.9500   -3.9700 H         1 NGL1        0.0000
     19 CD2       -11.4000    4.0380   -4.3680 C.3       1 NGL1        0.0000
     20 HD21      -11.9980    4.2820   -5.2580 H         1 NGL1        0.0000
     21 HD22      -10.8060    4.9270   -4.1010 H         1 NGL1        0.0000
     22 CB4        -6.1220    3.1860   -1.1550 C.3       1 NGL1        0.0000
     23 HB4        -6.2710    2.4110   -1.9470 H         1 NGL1        0.0000
     24 CD1       -12.3040    3.6320   -3.1790 C.3       1 NGL1        0.0000
     25 HD11      -13.2000    3.1010   -3.5740 H         1 NGL1        0.0000
     26 HD12      -12.6870    4.5680   -2.7020 H         1 NGL1        0.0000
     27 OD2       -11.6420    2.7530   -2.2660 O.3       1 NGL1        0.0000
     28 PD        -11.2420    3.2410   -0.7330 P.3       1 NGL1        0.0000
     29 OD1        -9.6550    3.5130   -0.8040 O.3       1 NGL1        0.0000
     30 OPD3      -11.4500    2.0330    0.1990 O.3       1 NGL1        0.0000
     31 OPD4      -11.9580    4.5160   -0.4150 O.2       1 NGL1        0.0000
     32 PB         -8.5960    3.9330   -1.9220 P.3       1 NGL1        0.0000
     33 OB4        -7.2200    4.0900   -1.0370 O.3       1 NGL1        0.0000
     34 OPB3       -8.5030    2.8060   -2.9300 O.2       1 NGL1        0.0000
     35 OPB4       -8.9870    5.2800   -2.5310 O.3       1 NGL1        0.0000
     36 CB3        -4.8830    3.9940   -1.4710 C.3       1 NGL1        0.0000
     37 OB3        -5.0370    4.5630   -2.7770 O.3       1 NGL1        0.0000
     38 HB3        -4.7590    4.7560   -0.6580 H         1 NGL1        0.0000
     39 C71        -5.3410    5.8610   -2.7960 C.2       1 NGL1        0.0000
     40 O71        -5.1890    6.6390   -1.9080 O.2       1 NGL1        0.0000
     41 C72        -5.7340    6.2320   -4.2220 C.3       1 NGL1        0.0000
     42 H72R       -6.7570    5.8410   -4.4020 H         1 NGL1        0.0000
     43 H72S       -5.0290    5.7720   -4.9400 H         1 NGL1        0.0000
     44 CB2        -3.6280    3.1490   -1.4270 C.3       1 NGL1        0.0000
     45 HB2        -3.6780    2.4120   -2.2690 H         1 NGL1        0.0000
     46 NB2        -2.4200    3.9610   -1.5480 N.am      1 NGL1        0.0000
     47 HNB2       -2.1120    4.3930   -0.7110 H         1 NGL1        0.0000
     48 CA4         0.0450    2.0920    1.1370 C.3       1 NGL1        0.0000
     49 HA4        -0.2300    2.6200    0.1940 H         1 NGL1        0.0000
     50 OA4        -0.4610    2.8450    2.2350 O.3       1 NGL1        0.0000
     51 HOA4       -0.1830    3.7620    2.0730 H         1 NGL1        0.0000
     52 CA5        -0.6350    0.7270    1.1000 C.3       1 NGL1        0.0000
     53 HA5        -0.4270    0.1830    2.0510 H         1 NGL1        0.0000
     54 OA5        -0.1210   -0.0420    0.0050 O.3       1 NGL1        0.0000
     55 CA1         1.2890   -0.2570    0.0740 C.3       1 NGL1        0.0000
     56 HA1         1.5480   -0.8090   -0.8660 H         1 NGL1        0.0000
     57 NC          2.6270   -5.7290    0.0430 N.4       1 NGL1        0.0000
     58 HNC1        1.7540   -6.2770   -0.0010 H         1 NGL1        0.0000
     59 HNC2        3.2400   -5.8760   -0.7810 H         1 NGL1        0.0000
     60 HNC3        2.3730   -4.6940    0.0230 H         1 NGL1        0.0000
     61 CC2         3.4190   -5.9500    1.2940 C.3       1 NGL1        0.0000
     62 HC21        3.4210   -7.0250    1.5260 H         1 NGL1        0.0000
     63 HC22        2.8910   -5.4390    2.1130 H         1 NGL1        0.0000
     64 CC1         4.8590   -5.3900    1.1630 C.3       1 NGL1        0.0000
     65 HC11        5.5090   -6.1980    0.7570 H         1 NGL1        0.0000
     66 HC12        5.2350   -5.1850    2.1960 H         1 NGL1        0.0000
     67 OC2         4.9470   -4.2590    0.2860 O.3       1 NGL1        0.0000
     68 PC          5.2990   -2.7370    0.8580 P.3       1 NGL1        0.0000
     69 OC1         3.8830   -1.9570    0.8190 O.3       1 NGL1        0.0000
     70 OPC3        6.1840   -2.0250   -0.1740 O.2       1 NGL1        0.0000
     71 OPC5        5.7870   -2.8240    2.2740 O.3       1 NGL1        0.0000
     72 PA          2.3800   -2.4040    1.1450 P.3       1 NGL1        0.0000
     73 OA1         1.6130   -0.9680    1.2540 O.3       1 NGL1        0.0000
     74 OPA3        1.8910   -3.2020   -0.0540 O.2       1 NGL1        0.0000
     75 OPA4        2.3410   -3.1420    2.4700 O.3       1 NGL1        0.0000
     76 CA3         1.5700    1.9660    1.1680 C.3       1 NGL1        0.0000
     77 HA3         1.8170    1.4200    2.1110 H         1 NGL1        0.0000
     78 OA3         2.4110    3.1280    1.1610 O.3       1 NGL1        0.0000
     79 C31         2.0290    4.3790    1.1020 C.2       1 NGL1        0.0000
     80 O31         0.8800    4.8030    1.1290 O.2       1 NGL1        0.0000
     81 C32         3.2710    5.2470    1.2740 C.3       1 NGL1        0.0000
     82 H32R        3.9810    4.9770    0.4650 H         1 NGL1        0.0000
     83 H32S        3.7390    5.0020    2.2490 H         1 NGL1        0.0000
     84 CA2         2.0090    1.0680    0.0170 C.3       1 NGL1        0.0000
     85 HA2         1.6200    1.5600   -0.9150 H         1 NGL1        0.0000
     86 NA2         3.4390    0.8570   -0.1770 N.am      1 NGL1        0.0000
     87 HNA2        3.7680   -0.0420    0.1260 H         1 NGL1        0.0000
     88 C73        -5.6920    7.7600   -4.3440 C.3       1 NGL1        0.0000
     89 H73R       -6.2970    8.2310   -3.5310 H         1 NGL1        0.0000
     90 O73        -6.2860    8.0860   -5.5870 O.3       1 NGL1        0.0000
     91 HO73       -7.2220    7.8810   -5.6470 H         1 NGL1        0.0000
     92 C74        -4.2540    8.3290   -4.3120 C.3       1 NGL1        0.0000
     93 H74R       -3.6900    7.9770   -5.2000 H         1 NGL1        0.0000
     94 H74S       -3.7490    7.9100   -3.4120 H         1 NGL1        0.0000
     95 C75        -4.1740    9.8660   -4.2300 C.3       1 NGL1        0.0000
     96 H75R       -5.1620   10.2210   -3.8640 H         1 NGL1        0.0000
     97 H75S       -3.9990   10.3040   -5.2400 H         1 NGL1        0.0000
     98 C76        -3.0810   10.2980   -3.2460 C.3       1 NGL1        0.0000
     99 H76R       -2.1210    9.8370   -3.5790 H         1 NGL1        0.0000
    100 H76S       -3.3130    9.8730   -2.2440 H         1 NGL1        0.0000
    101 C77        -2.8880   11.8130   -3.1050 C.3       1 NGL1        0.0000
    102 H77R       -3.7990   12.3440   -2.7460 H         1 NGL1        0.0000
    103 H77S       -2.6380   12.1960   -4.1160 H         1 NGL1        0.0000
    104 C78        -1.7000   12.0720   -2.1810 C.3       1 NGL1        0.0000
    105 H78R       -0.8440   11.5160   -2.6260 H         1 NGL1        0.0000
    106 H78S       -1.9140   11.6390   -1.1780 H         1 NGL1        0.0000
    107 C79        -1.2930   13.5390   -2.0230 C.3       1 NGL1        0.0000
    108 H79R       -1.9680   14.0200   -1.2900 H         1 NGL1        0.0000
    109 H79S       -1.4300   14.1120   -2.9690 H         1 NGL1        0.0000
    110 C710        0.1650   13.6130   -1.5410 C.3       1 NGL1        0.0000
    111 H710        0.8080   13.0290   -2.2400 H         1 NGL1        0.0000
    112 H710        0.2470   13.1530   -0.5290 H         1 NGL1        0.0000
    113 C711        0.7390   15.0270   -1.5300 C.3       1 NGL1        0.0000
    114 H711        0.3240   15.5960   -0.6730 H         1 NGL1        0.0000
    115 H711        0.3830   15.5510   -2.4370 H         1 NGL1        0.0000
    116 C712        2.2700   15.0570   -1.5580 C.3       1 NGL1        0.0000
    117 H712        2.6330   14.6370   -2.5220 H         1 NGL1        0.0000
    118 H712        2.6930   14.4450   -0.7360 H         1 NGL1        0.0000
    119 H712        2.6520   16.0980   -1.4750 H         1 NGL1        0.0000
    120 C51        -1.6270    4.0320   -2.6240 C.2       1 NGL1        0.0000
    121 O51        -1.9500    3.6080   -3.7260 O.2       1 NGL1        0.0000
    122 C52        -0.2570    4.6330   -2.3750 C.3       1 NGL1        0.0000
    123 H52R        0.3730    3.8390   -1.9180 H         1 NGL1        0.0000
    124 H52S       -0.3370    5.4750   -1.6600 H         1 NGL1        0.0000
    125 C53         0.4140    5.1000   -3.6800 C.3       1 NGL1        0.0000
    126 H53R        0.3190    4.2780   -4.4340 H         1 NGL1        0.0000
    127 O53         1.7830    5.3710   -3.3340 O.3       1 NGL1        0.0000
    128 C61         2.6820    4.9420   -4.2200 C.2       1 NGL1        0.0000
    129 O61         2.4190    4.4290   -5.3030 O.2       1 NGL1        0.0000
    130 C62         4.0920    5.2250   -3.7200 C.3       1 NGL1        0.0000
    131 H62R        4.8010    4.6990   -4.3880 H         1 NGL1        0.0000
    132 H62S        4.1780    4.7840   -2.7050 H         1 NGL1        0.0000
    133 C63         4.4420    6.7260   -3.6640 C.3       1 NGL1        0.0000
    134 H63R        5.4120    6.8350   -3.1280 H         1 NGL1        0.0000
    135 H63S        3.6750    7.2590   -3.0710 H         1 NGL1        0.0000
    136 C64         4.5900    7.3910   -5.0400 C.3       1 NGL1        0.0000
    137 H64R        3.6260    7.3280   -5.5910 H         1 NGL1        0.0000
    138 H64S        5.3520    6.8460   -5.6410 H         1 NGL1        0.0000
    139 C65         5.0090    8.8600   -4.8980 C.3       1 NGL1        0.0000
    140 H65R        6.0180    8.9000   -4.4280 H         1 NGL1        0.0000
    141 H65S        4.3130    9.3720   -4.2020 H         1 NGL1        0.0000
    142 C66         5.0320    9.6480   -6.2150 C.3       1 NGL1        0.0000
    143 H66R        4.0500    9.5780   -6.7340 H         1 NGL1        0.0000
    144 H66S        5.7980    9.1840   -6.8760 H         1 NGL1        0.0000
    145 C67         5.3750   11.1280   -5.9700 C.3       1 NGL1        0.0000
    146 H67R        6.0840   11.1670   -5.1090 H         1 NGL1        0.0000
    147 H67S        4.4690   11.6910   -5.6630 H         1 NGL1        0.0000
    148 C68         6.0610   11.8120   -7.1600 C.3       1 NGL1        0.0000
    149 H68R        6.3660   11.0520   -7.9120 H         1 NGL1        0.0000
    150 H68S        6.9890   12.3000   -6.7780 H         1 NGL1        0.0000
    151 C69         5.2490   12.9180   -7.8460 C.3       1 NGL1        0.0000
    152 H69R        5.0480   13.7160   -7.0950 H         1 NGL1        0.0000
    153 H69S        4.2700   12.5300   -8.2010 H         1 NGL1        0.0000
    154 C610        6.0360   13.5170   -9.0220 C.3       1 NGL1        0.0000
    155 H610        5.7820   12.9710   -9.9570 H         1 NGL1        0.0000
    156 H610        7.1240   13.3630   -8.8390 H         1 NGL1        0.0000
    157 C611        5.8230   15.0230   -9.2130 C.3       1 NGL1        0.0000
    158 H611        6.0970   15.5430   -8.2660 H         1 NGL1        0.0000
    159 H611        4.7460   15.2210   -9.4070 H         1 NGL1        0.0000
    160 C612        6.6690   15.5930  -10.3550 C.3       1 NGL1        0.0000
    161 H612        6.3830   15.1260  -11.3220 H         1 NGL1        0.0000
    162 H612        7.7480   15.3900  -10.1760 H         1 NGL1        0.0000
    163 H612        6.5310   16.6920  -10.4380 H         1 NGL1        0.0000
    164 C54        -0.2340    6.3860   -4.2610 C.3       1 NGL1        0.0000
    165 H54R       -0.3080    7.1520   -3.4600 H         1 NGL1        0.0000
    166 H54S       -1.2650    6.1290   -4.5910 H         1 NGL1        0.0000
    167 C55         0.5400    6.9820   -5.4520 C.3       1 NGL1        0.0000
    168 H55R        0.8180    6.1490   -6.1380 H         1 NGL1        0.0000
    169 H55S        1.4760    7.4450   -5.0670 H         1 NGL1        0.0000
    170 C56        -0.2210    8.0110   -6.2980 C.3       1 NGL1        0.0000
    171 H56R       -0.4790    8.8960   -5.6800 H         1 NGL1        0.0000
    172 H56S       -1.1730    7.5510   -6.6450 H         1 NGL1        0.0000
    173 C57         0.5910    8.4400   -7.5350 C.3       1 NGL1        0.0000
    174 H57R        0.1980    7.8990   -8.4260 H         1 NGL1        0.0000
    175 H57S        1.6500    8.1180   -7.4030 H         1 NGL1        0.0000
    176 C58         0.5740    9.9540   -7.7890 C.3       1 NGL1        0.0000
    177 H58R        1.2830   10.4350   -7.0800 H         1 NGL1        0.0000
    178 H58S       -0.4370   10.3640   -7.5710 H         1 NGL1        0.0000
    179 C59         0.9650   10.3310   -9.2290 C.3       1 NGL1        0.0000
    180 H59R        0.1840    9.9640   -9.9340 H         1 NGL1        0.0000
    181 H59S        1.9150    9.8140   -9.4860 H         1 NGL1        0.0000
    182 C510        1.1710   11.8460   -9.3990 C.3       1 NGL1        0.0000
    183 H510        1.8200   12.2190   -8.5730 H         1 NGL1        0.0000
    184 H510        0.1880   12.3600   -9.3160 H         1 NGL1        0.0000
    185 C511        1.8130   12.2520  -10.7310 C.3       1 NGL1        0.0000
    186 H511        1.3670   11.6470  -11.5520 H         1 NGL1        0.0000
    187 H511        2.9000   12.0200  -10.6870 H         1 NGL1        0.0000
    188 C512        1.6000   13.7430  -11.0490 C.3       1 NGL1        0.0000
    189 H512        1.7330   14.3590  -10.1310 H         1 NGL1        0.0000
    190 H512        0.5470   13.8800  -11.3830 H         1 NGL1        0.0000
    191 C513        2.5440   14.2820  -12.1320 C.3       1 NGL1        0.0000
    192 H513        2.8740   13.4360  -12.7770 H         1 NGL1        0.0000
    193 H513        3.4520   14.6980  -11.6370 H         1 NGL1        0.0000
    194 C514        1.9010   15.3540  -13.0190 C.3       1 NGL1        0.0000
    195 H514        1.5140   16.1950  -12.4050 H         1 NGL1        0.0000
    196 H514        1.0530   14.9210  -13.5940 H         1 NGL1        0.0000
    197 H514        2.6410   15.7580  -13.7430 H         1 NGL1        0.0000
    198 C33         2.9690    6.7590    1.2130 C.3       1 NGL1        0.0000
    199 H33R        3.9260    7.3030    1.4060 H         1 NGL1        0.0000
    200 O33         2.0670    7.1170    2.2400 O.3       1 NGL1        0.0000
    201 HO33        1.2030    6.6990    2.1510 H         1 NGL1        0.0000
    202 C34         2.4270    7.2240   -0.1510 C.3       1 NGL1        0.0000
    203 H34R        1.4350    6.7650   -0.3600 H         1 NGL1        0.0000
    204 H34S        3.1380    6.8400   -0.9170 H         1 NGL1        0.0000
    205 C35         2.3070    8.7510   -0.3340 C.3       1 NGL1        0.0000
    206 H35R        3.1510    9.2800    0.1610 H         1 NGL1        0.0000
    207 H35S        1.3550    9.0970    0.1280 H         1 NGL1        0.0000
    208 C36         2.3320    9.0940   -1.8250 C.3       1 NGL1        0.0000
    209 H36R        1.8540    8.2420   -2.3640 H         1 NGL1        0.0000
    210 H36S        3.3870    9.1620   -2.1720 H         1 NGL1        0.0000
    211 C37         1.5960   10.3620   -2.2550 C.3       1 NGL1        0.0000
    212 H37R        2.1400   11.2620   -1.8950 H         1 NGL1        0.0000
    213 H37S        0.5830   10.3380   -1.7940 H         1 NGL1        0.0000
    214 C38         1.4650   10.3660   -3.7870 C.3       1 NGL1        0.0000
    215 H38R        0.5000    9.9010   -4.0610 H         1 NGL1        0.0000
    216 H38S        2.2210    9.6630   -4.1980 H         1 NGL1        0.0000
    217 C39         1.6940   11.6990   -4.5150 C.3       1 NGL1        0.0000
    218 H39R        2.2990   11.4420   -5.4150 H         1 NGL1        0.0000
    219 H39S        2.2920   12.4070   -3.8990 H         1 NGL1        0.0000
    220 C310        0.3980   12.3570   -5.0080 C.3       1 NGL1        0.0000
    221 H310       -0.0130   12.9590   -4.1790 H         1 NGL1        0.0000
    222 H310       -0.3680   11.5850   -5.2450 H         1 NGL1        0.0000
    223 C311        0.5970   13.2660   -6.2260 C.3       1 NGL1        0.0000
    224 H311        0.1870   12.7470   -7.1210 H         1 NGL1        0.0000
    225 H311        1.6950   13.4320   -6.3720 H         1 NGL1        0.0000
    226 C312       -0.0860   14.6280   -6.0860 C.3       1 NGL1        0.0000
    227 H312        0.4120   15.2120   -5.2850 H         1 NGL1        0.0000
    228 H312       -1.1670   14.5340   -5.8440 H         1 NGL1        0.0000
    229 H312       -0.0030   15.1980   -7.0330 H         1 NGL1        0.0000
    230 C11         4.1310    1.5720   -1.0760 C.2       1 NGL1        0.0000
    231 O11         3.9150    2.7660   -1.2600 O.2       1 NGL1        0.0000
    232 C12         5.0870    0.7930   -1.9660 C.3       1 NGL1        0.0000
    233 H12R        4.4650    0.0930   -2.5630 H         1 NGL1        0.0000
    234 H12S        5.7760    0.1870   -1.3450 H         1 NGL1        0.0000
    235 C13         5.8720    1.7120   -2.9320 C.3       1 NGL1        0.0000
    236 H13R        5.2910    2.6420   -3.1380 H         1 NGL1        0.0000
    237 O13         6.1520    0.9590   -4.1270 O.3       1 NGL1        0.0000
    238 C21         5.6590    1.4620   -5.2550 C.2       1 NGL1        0.0000
    239 O21         4.9930    2.4810   -5.3530 O.2       1 NGL1        0.0000
    240 C22         6.0390    0.5910   -6.4470 C.3       1 NGL1        0.0000
    241 H22S        5.1450    0.5070   -7.0990 H         1 NGL1        0.0000
    242 H22R        6.2940   -0.4210   -6.0680 H         1 NGL1        0.0000
    243 C23         7.2300    1.1660   -7.2540 C.3       1 NGL1        0.0000
    244 H23R        7.6110    0.3500   -7.9120 H         1 NGL1        0.0000
    245 H23S        8.0600    1.4510   -6.5700 H         1 NGL1        0.0000
    246 C24         6.8820    2.3550   -8.1680 C.3       1 NGL1        0.0000
    247 H24R        6.6110    3.2410   -7.5510 H         1 NGL1        0.0000
    248 H24S        5.9970    2.0980   -8.7920 H         1 NGL1        0.0000
    249 C25         8.0580    2.7090   -9.0950 C.3       1 NGL1        0.0000
    250 H25R        8.3380    1.7980   -9.6730 H         1 NGL1        0.0000
    251 H25S        8.9350    2.9950   -8.4720 H         1 NGL1        0.0000
    252 C26         7.7650    3.8370  -10.0980 C.3       1 NGL1        0.0000
    253 H26R        7.4040    4.7410   -9.5600 H         1 NGL1        0.0000
    254 H26S        6.9530    3.5030  -10.7820 H         1 NGL1        0.0000
    255 C27         9.0090    4.2110  -10.9240 C.3       1 NGL1        0.0000
    256 H27R        9.5960    3.2920  -11.1480 H         1 NGL1        0.0000
    257 H27S        9.6550    4.8690  -10.3010 H         1 NGL1        0.0000
    258 C28         8.6850    4.9110  -12.2550 C.3       1 NGL1        0.0000
    259 H28R        7.6510    5.3210  -12.2190 H         1 NGL1        0.0000
    260 H28S        8.7160    4.1540  -13.0720 H         1 NGL1        0.0000
    261 C29         9.6540    6.0580  -12.5850 C.3       1 NGL1        0.0000
    262 H29R       10.6980    5.6720  -12.5540 H         1 NGL1        0.0000
    263 H29S        9.5630    6.8490  -11.8070 H         1 NGL1        0.0000
    264 C210        9.3910    6.6780  -13.9650 C.3       1 NGL1        0.0000
    265 H210        8.3970    7.1780  -13.9590 H         1 NGL1        0.0000
    266 H210        9.3550    5.8660  -14.7270 H         1 NGL1        0.0000
    267 C211       10.4680    7.6880  -14.3830 C.3       1 NGL1        0.0000
    268 H211       11.4460    7.1570  -14.4460 H         1 NGL1        0.0000
    269 H211       10.5620    8.4680  -13.5930 H         1 NGL1        0.0000
    270 C212       10.1760    8.3650  -15.7260 C.3       1 NGL1        0.0000
    271 H212        9.2490    8.9740  -15.6610 H         1 NGL1        0.0000
    272 H212       10.0390    7.6040  -16.5240 H         1 NGL1        0.0000
    273 H212       11.0150    9.0320  -16.0190 H         1 NGL1        0.0000
    274 C14         7.2160    2.1330   -2.2980 C.3       1 NGL1        0.0000
    275 H14R        7.7020    1.2170   -1.8920 H         1 NGL1        0.0000
    276 H14S        6.9960    2.8070   -1.4410 H         1 NGL1        0.0000
    277 C15         8.2240    2.8230   -3.2390 C.3       1 NGL1        0.0000
    278 H15R        8.5820    2.0970   -4.0030 H         1 NGL1        0.0000
    279 H15S        9.1060    3.1170   -2.6250 H         1 NGL1        0.0000
    280 C16         7.6820    4.0720   -3.9480 C.3       1 NGL1        0.0000
    281 H16R        6.9800    4.6100   -3.2750 H         1 NGL1        0.0000
    282 H16S        7.1130    3.7660   -4.8530 H         1 NGL1        0.0000
    283 C17         8.8000    5.0310   -4.3740 C.3       1 NGL1        0.0000
    284 H17R        9.5730    4.4650   -4.9400 H         1 NGL1        0.0000
    285 H17S        9.2850    5.4510   -3.4640 H         1 NGL1        0.0000
    286 C18         8.2870    6.1800   -5.2500 C.3       1 NGL1        0.0000
    287 H18R        7.5480    6.7750   -4.6670 H         1 NGL1        0.0000
    288 H18S        7.7610    5.7630   -6.1380 H         1 NGL1        0.0000
    289 C19         9.4240    7.0970   -5.7120 C.3       1 NGL1        0.0000
    290 H19R       10.1420    6.5210   -6.3370 H         1 NGL1        0.0000
    291 H19S        9.9710    7.4540   -4.8100 H         1 NGL1        0.0000
    292 C110        8.9260    8.3150   -6.4970 C.3       1 NGL1        0.0000
    293 H110        8.0810    8.7770   -5.9370 H         1 NGL1        0.0000
    294 H110        8.5360    7.9950   -7.4890 H         1 NGL1        0.0000
    295 C111       10.0230    9.3730   -6.6740 C.3       1 NGL1        0.0000
    296 H111       10.8590    8.9570   -7.2770 H         1 NGL1        0.0000
    297 H111       10.4240    9.6330   -5.6680 H         1 NGL1        0.0000
    298 C112        9.4920   10.6520   -7.3290 C.3       1 NGL1        0.0000
    299 H112        8.6070   10.9850   -6.7470 H         1 NGL1        0.0000
    300 H112        9.1560   10.4310   -8.3670 H         1 NGL1        0.0000
    301 C113       10.5140   11.7940   -7.3440 C.3       1 NGL1        0.0000
    302 H113       11.4190   11.4630   -7.9010 H         1 NGL1        0.0000
    303 H113       10.8230   12.0060   -6.2940 H         1 NGL1        0.0000
    304 C114        9.9700   13.0790   -7.9740 C.3       1 NGL1        0.0000
    305 H114        9.0890   13.4460   -7.4050 H         1 NGL1        0.0000
    306 H114        9.6560   12.8960   -9.0240 H         1 NGL1        0.0000
    307 H114       10.7450   13.8760   -7.9710 H         1 NGL1        0.0000
@<TRIPOS>BOND
     1  272  270 1 
     2  273  270 1 
     3  270  271 1 
     4  270  267 1 
     5  266  264 1 
     6  268  267 1 
     7  267  264 1 
     8  267  269 1 
     9  264  265 1 
    10  264  261 1 
    11  197  194 1 
    12  196  194 1 
    13  260  258 1 
    14  194  195 1 
    15  194  191 1 
    16  192  191 1 
    17  261  262 1 
    18  261  258 1 
    19  261  263 1 
    20  258  259 1 
    21  258  255 1 
    22  191  193 1 
    23  191  188 1 
    24  186  185 1 
    25  190  188 1 
    26  161  160 1 
    27  256  255 1 
    28  188  185 1 
    29  188  189 1 
    30  255  257 1 
    31  255  252 1 
    32  254  252 1 
    33  185  187 1 
    34  185  182 1 
    35  163  160 1 
    36  160  162 1 
    37  160  157 1 
    38  252  253 1 
    39  252  249 1 
    40  155  154 1 
    41  180  179 1 
    42  250  249 1 
    43  181  179 1 
    44  159  157 1 
    45  182  184 1 
    46  182  179 1 
    47  182  183 1 
    48  179  176 1 
    49  157  154 1 
    50  157  158 1 
    51  249  251 1 
    52  249  246 1 
    53  306  304 1 
    54  154  156 1 
    55  154  151 1 
    56  248  246 1 
    57  174  173 1 
    58  300  298 1 
    59  153  151 1 
    60  246  247 1 
    61  246  243 1 
    62  304  307 1 
    63  304  305 1 
    64  304  301 1 
    65  244  243 1 
    66  149  148 1 
    67  302  301 1 
    68  151  148 1 
    69  151  152 1 
    70  176  178 1 
    71  176  173 1 
    72  176  177 1 
    73  173  175 1 
    74  173  170 1 
    75  294  292 1 
    76  301  298 1 
    77  301  303 1 
    78  298  299 1 
    79  298  295 1 
    80  296  295 1 
    81  243  245 1 
    82  243  240 1 
    83  148  150 1 
    84  148  145 1 
    85  224  223 1 
    86  241  240 1 
    87  229  226 1 
    88  144  142 1 
    89  143  142 1 
    90  295  292 1 
    91  295  297 1 
    92  172  170 1 
    93  292  293 1 
    94  292  289 1 
    95  240  242 1 
    96  240  238 1 
    97  225  223 1 
    98  290  289 1 
    99  170  171 1 
   100  170  167 1 
   101  223  226 1 
   102  223  220 1 
   103  142  145 1 
   104  142  139 1 
   105  288  286 1 
   106  168  167 1 
   107  226  228 1 
   108  226  227 1 
   109  145  147 1 
   110  145  146 1 
   111  289  286 1 
   112  289  291 1 
   113   91   90 1 
   114  138  136 1 
   115   16   15 1 
   116  137  136 1 
   117   90   88 1 
   118  167  169 1 
   119  167  164 1 
   120  218  217 1 
   121  239  238 2 
   122  129  128 2 
   123   20   19 1 
   124  238  237 1 
   125  286  287 1 
   126  286  283 1 
   127  222  220 1 
   128   97   95 1 
   129   93   92 1 
   130  136  139 1 
   131  136  133 1 
   132  220  217 1 
   133  220  221 1 
   134   43   41 1 
   135  284  283 1 
   136  139  140 1 
   137  139  141 1 
   138  282  280 1 
   139   15   17 1 
   140   15   19 1 
   141   15   18 1 
   142  166  164 1 
   143  217  219 1 
   144  217  214 1 
   145  126  125 1 
   146   42   41 1 
   147  131  130 1 
   148  283  280 1 
   149  283  285 1 
   150   19   21 1 
   151   19   24 1 
   152   88   92 1 
   153   88   41 1 
   154   88   89 1 
   155   92   95 1 
   156   92   94 1 
   157  164  125 1 
   158  164  165 1 
   159   95   96 1 
   160   95   98 1 
   161   41   39 1 
   162  128  130 1 
   163  128  127 1 
   164  216  214 1 
   165  237  235 1 
   166  103  101 1 
   167  215  214 1 
   168  278  277 1 
   169  280  281 1 
   170  280  277 1 
   171  214  211 1 
   172  121  120 2 
   173  130  133 1 
   174  130  132 1 
   175  125  127 1 
   176  125  122 1 
   177  133  134 1 
   178  133  135 1 
   179   99   98 1 
   180   25   24 1 
   181   98  101 1 
   182   98  100 1 
   183  277  279 1 
   184  277  274 1 
   185   24   26 1 
   186   24   27 1 
   187  236  235 1 
   188  101  102 1 
   189  101  104 1 
   190  109  107 1 
   191  235  274 1 
   192  235  232 1 
   193   34   32 2 
   194   39   37 1 
   195   39   40 2 
   196   37   36 1 
   197  105  104 1 
   198  120  122 1 
   199  120   46 am
   200  233  232 1 
   201   35   32 1 
   202  117  116 1 
   203  115  113 1 
   204  122  123 1 
   205  122  124 1 
   206  209  208 1 
   207  274  275 1 
   208  274  276 1 
   209   45   44 1 
   210   27   28 1 
   211  211  212 1 
   212  211  208 1 
   213  211  213 1 
   214  111  110 1 
   215  104  107 1 
   216  104  106 1 
   217  210  208 1 
   218  107  110 1 
   219  107  108 1 
   220  232  234 1 
   221  232  230 1 
   222   23   22 1 
   223   32   33 1 
   224   32   29 1 
   225  208  205 1 
   226  116  113 1 
   227  116  119 1 
   228  116  118 1 
   229   46   44 1 
   230   46   47 1 
   231  110  113 1 
   232  110  112 1 
   233  113  114 1 
   234   36   44 1 
   235   36   22 1 
   236   36   38 1 
   237   44    9 1 
   238  231  230 2 
   239   22   33 1 
   240   22    6 1 
   241  230   86 am
   242  204  202 1 
   243   85   84 1 
   244   56   55 1 
   245   29   28 1 
   246   59   57 1 
   247   28   31 2 
   248   28   30 1 
   249  203  202 1 
   250  205  202 1 
   251  205  207 1 
   252  205  206 1 
   253   11    9 1 
   254   11   12 1 
   255   86   84 1 
   256   86   87 1 
   257   70   68 2 
   258  202  198 1 
   259    9    7 1 
   260    9   10 1 
   261    5    4 1 
   262   74   72 2 
   263   58   57 1 
   264   54   55 1 
   265   54   52 1 
   266   84   55 1 
   267   84   76 1 
   268   60   57 1 
   269    7    6 1 
   270   57   61 1 
   271   55   73 1 
   272    6    4 1 
   273    6    8 1 
   274   49   48 1 
   275   67   68 1 
   276   67   64 1 
   277   82   81 1 
   278    4    1 1 
   279    4    2 1 
   280   65   64 1 
   281   69   68 1 
   282   69   72 1 
   283   13   12 1 
   284   68   71 1 
   285   12   52 1 
   286   12   14 1 
   287   52   48 1 
   288   52   53 1 
   289   79   80 2 
   290   79   78 1 
   291   79   81 1 
   292   48   76 1 
   293   48   50 1 
   294   72   73 1 
   295   72   75 1 
   296   78   76 1 
   297   64   61 1 
   298   64   66 1 
   299   76   77 1 
   300  198   81 1 
   301  198  199 1 
   302  198  200 1 
   303   81   83 1 
   304   61   62 1 
   305   61   63 1 
   306    3    2 1 
   307   51   50 1 
   308  201  200 1 
