@<TRIPOS>MOLECULE
C:\Users\Praveer\PycharmProjects\pdb_to_mol2_converter\data\pdb\nglipa.pdb
  279   280     0     0     0
SMALL
GASTEIGER

@<TRIPOS>ATOM
      1 HB6S       -7.9740    2.3530    0.9340 H         1 NGL1        0.0000
      2 OB6        -6.7890    0.8810    1.8280 O.3       1 NGL1        0.0000
      3 HOB6       -5.9730    0.4230    1.5990 H         1 NGL1        0.0000
      4 CB6        -7.1110    1.6900    0.6890 C.3       1 NGL1        0.0000
      5 HB6R       -7.4310    1.0380   -0.1540 H         1 NGL1        0.0000
      6 CB5        -5.9110    2.5220    0.2710 C.3       1 NGL1        0.0000
      7 OB5        -4.7550    1.6750    0.1270 O.3       1 NGL1        0.0000
      8 HB5        -5.7280    3.2630    1.0870 H         1 NGL1        0.0000
      9 CB1        -3.5660    2.4510   -0.0530 C.3       1 NGL1        0.0000
     10 HB1        -3.4290    3.1450    0.8070 H         1 NGL1        0.0000
     11 OA6        -2.4270    1.6470   -0.1870 O.3       1 NGL1        0.0000
     12 CA6        -2.1440    0.8760    0.9810 C.3       1 NGL1        0.0000
     13 HA6R       -2.5890   -0.1370    0.8740 H         1 NGL1        0.0000
     14 HA6S       -2.5720    1.3560    1.8880 H         1 NGL1        0.0000
     15 CB4        -6.0880    3.2630   -1.0410 C.3       1 NGL1        0.0000
     16 HB4        -6.2190    2.5030   -1.8510 H         1 NGL1        0.0000
     17 OB4        -7.2210    4.1070   -0.8770 O.3       1 NGL1        0.0000
     18 PB         -8.4930    4.1240   -1.9360 P.3       1 NGL1        0.0000
     19 OPB4       -8.5210    5.5520   -2.4670 O.3       1 NGL1        0.0000
     20 OPB3       -9.6950    3.7450   -1.0860 O.3       1 NGL1        0.0000
     21 OPB2       -8.1710    3.1010   -3.0210 O.2       1 NGL1        0.0000
     22 CB3        -4.8650    4.0990   -1.3370 C.3       1 NGL1        0.0000
     23 OB3        -4.9880    4.6970   -2.6250 O.3       1 NGL1        0.0000
     24 HB3        -4.7360    4.8480   -0.5130 H         1 NGL1        0.0000
     25 C71        -5.4940    5.9380   -2.6290 C.2       1 NGL1        0.0000
     26 O71        -5.2230    6.7720   -1.7790 O.2       1 NGL1        0.0000
     27 C72        -5.7700    6.2840   -4.0860 C.3       1 NGL1        0.0000
     28 H72R       -6.7890    5.8960   -4.3050 H         1 NGL1        0.0000
     29 H72S       -5.0390    5.7750   -4.7440 H         1 NGL1        0.0000
     30 CB2        -3.6210    3.2470   -1.3390 C.3       1 NGL1        0.0000
     31 HB2        -3.7160    2.5140   -2.1820 H         1 NGL1        0.0000
     32 NB2        -2.4050    4.0430   -1.5080 N.am      1 NGL1        0.0000
     33 HNB2       -2.0940    4.5190   -0.6980 H         1 NGL1        0.0000
     34 CA4         0.0180    2.1530    1.1760 C.3       1 NGL1        0.0000
     35 HA4        -0.2810    2.7020    0.2510 H         1 NGL1        0.0000
     36 OA4        -0.4690    2.8740    2.3050 O.3       1 NGL1        0.0000
     37 HOA4       -0.1990    3.7960    2.1600 H         1 NGL1        0.0000
     38 CA5        -0.6380    0.7800    1.1180 C.3       1 NGL1        0.0000
     39 HA5        -0.3950    0.2120    2.0460 H         1 NGL1        0.0000
     40 OA5        -0.1560    0.0280   -0.0030 O.3       1 NGL1        0.0000
     41 CA1         1.2710   -0.1510   -0.0120 C.3       1 NGL1        0.0000
     42 HA1         1.4740   -0.6480   -0.9930 H         1 NGL1        0.0000
     43 OA1         1.6850   -0.9780    1.0680 O.3       1 NGL1        0.0000
     44 OPA2        2.9380   -2.9120    2.1120 O.3       1 NGL1        0.0000
     45 OPA3        2.5520   -2.8230   -0.4120 O.2       1 NGL1        0.0000
     46 OPA4        4.1740   -1.2140    0.6740 O.3       1 NGL1        0.0000
     47 PA          2.9210   -2.0590    0.8480 P.3       1 NGL1        0.0000
     48 CA3         1.5330    2.0330    1.1710 C.3       1 NGL1        0.0000
     49 HA3         1.8170    1.4380    2.0740 H         1 NGL1        0.0000
     50 OA3         2.3670    3.1990    1.1780 O.3       1 NGL1        0.0000
     51 C31         1.9800    4.4440    1.1190 C.2       1 NGL1        0.0000
     52 O31         0.8390    4.8680    1.1930 O.2       1 NGL1        0.0000
     53 C32         3.2290    5.2980    1.3250 C.3       1 NGL1        0.0000
     54 H32R        3.9710    5.0070    0.5510 H         1 NGL1        0.0000
     55 H32S        3.6480    5.0650    2.3240 H         1 NGL1        0.0000
     56 CA2         1.9390    1.2120   -0.0330 C.3       1 NGL1        0.0000
     57 HA2         1.5240    1.7380   -0.9320 H         1 NGL1        0.0000
     58 NA2         3.3630    1.0750   -0.2300 N.am      1 NGL1        0.0000
     59 HNA2        3.7160    0.1830    0.1330 H         1 NGL1        0.0000
     60 C73        -5.7120    7.8000   -4.2860 C.3       1 NGL1        0.0000
     61 H73R       -6.3300    8.3110   -3.5090 H         1 NGL1        0.0000
     62 O73        -6.2690    8.0650   -5.5600 O.3       1 NGL1        0.0000
     63 HO73       -7.1300    7.6510   -5.6780 H         1 NGL1        0.0000
     64 C74        -4.2780    8.3620   -4.2540 C.3       1 NGL1        0.0000
     65 H74R       -3.7100    7.9810   -5.1280 H         1 NGL1        0.0000
     66 H74S       -3.7780    7.9590   -3.3460 H         1 NGL1        0.0000
     67 C75        -4.1860    9.8960   -4.1960 C.3       1 NGL1        0.0000
     68 H75R       -5.1410   10.3170   -3.8040 H         1 NGL1        0.0000
     69 H75S       -4.0220   10.3050   -5.2180 H         1 NGL1        0.0000
     70 C76        -3.0690   10.3150   -3.2440 C.3       1 NGL1        0.0000
     71 H76R       -2.1010    9.8780   -3.5880 H         1 NGL1        0.0000
     72 H76S       -3.2920    9.8690   -2.2440 H         1 NGL1        0.0000
     73 C77        -2.9540   11.8270   -3.0610 C.3       1 NGL1        0.0000
     74 H77R       -3.9000   12.2400   -2.6470 H         1 NGL1        0.0000
     75 H77S       -2.7650   12.3200   -4.0400 H         1 NGL1        0.0000
     76 C78        -1.7940   12.0800   -2.1090 C.3       1 NGL1        0.0000
     77 H78R       -0.9230   11.5480   -2.5590 H         1 NGL1        0.0000
     78 H78S       -2.0000   11.6250   -1.1150 H         1 NGL1        0.0000
     79 C79        -1.3750   13.5350   -1.9780 C.3       1 NGL1        0.0000
     80 H79R       -2.0880   14.1340   -1.3800 H         1 NGL1        0.0000
     81 H79S       -1.3770   13.9860   -2.9960 H         1 NGL1        0.0000
     82 C710        0.0510   13.6010   -1.4180 C.3       1 NGL1        0.0000
     83 H710        0.6980   12.9420   -2.0430 H         1 NGL1        0.0000
     84 H710        0.0940   13.2170   -0.3750 H         1 NGL1        0.0000
     85 C711        0.6200   15.0120   -1.5080 C.3       1 NGL1        0.0000
     86 H711        0.2390   15.6050   -0.6500 H         1 NGL1        0.0000
     87 H711        0.2170   15.4770   -2.4350 H         1 NGL1        0.0000
     88 C712        2.1470   15.0780   -1.5430 C.3       1 NGL1        0.0000
     89 H712        2.5430   14.6300   -2.4810 H         1 NGL1        0.0000
     90 H712        2.5770   14.5250   -0.6800 H         1 NGL1        0.0000
     91 H712        2.4750   16.1390   -1.4880 H         1 NGL1        0.0000
     92 C51        -1.6190    4.0580   -2.5960 C.2       1 NGL1        0.0000
     93 O51        -1.9460    3.5890   -3.6780 O.2       1 NGL1        0.0000
     94 C52        -0.2370    4.6490   -2.3830 C.3       1 NGL1        0.0000
     95 H52R        0.3880    3.8550   -1.9190 H         1 NGL1        0.0000
     96 H52S       -0.3000    5.5070   -1.6860 H         1 NGL1        0.0000
     97 C53         0.4300    5.0830   -3.7050 C.3       1 NGL1        0.0000
     98 H53R        0.3380    4.2440   -4.4390 H         1 NGL1        0.0000
     99 O53         1.8010    5.3610   -3.3720 O.3       1 NGL1        0.0000
    100 C61         2.6990    4.9770   -4.2830 C.2       1 NGL1        0.0000
    101 O61         2.4380    4.5250   -5.3880 O.2       1 NGL1        0.0000
    102 C62         4.1140    5.2300   -3.7680 C.3       1 NGL1        0.0000
    103 H62R        4.8150    4.6830   -4.4270 H         1 NGL1        0.0000
    104 H62S        4.1760    4.7940   -2.7520 H         1 NGL1        0.0000
    105 C63         4.5140    6.7170   -3.6960 C.3       1 NGL1        0.0000
    106 H63R        5.5100    6.7800   -3.2000 H         1 NGL1        0.0000
    107 H63S        3.7940    7.2550   -3.0520 H         1 NGL1        0.0000
    108 C64         4.6160    7.4020   -5.0650 C.3       1 NGL1        0.0000
    109 H64R        3.6420    7.3340   -5.5970 H         1 NGL1        0.0000
    110 H64S        5.3700    6.8720   -5.6880 H         1 NGL1        0.0000
    111 C65         5.0150    8.8750   -4.9170 C.3       1 NGL1        0.0000
    112 H65R        6.0240    8.9220   -4.4490 H         1 NGL1        0.0000
    113 H65S        4.3090    9.3740   -4.2210 H         1 NGL1        0.0000
    114 C66         5.0430    9.6680   -6.2300 C.3       1 NGL1        0.0000
    115 H66R        4.0610    9.6110   -6.7490 H         1 NGL1        0.0000
    116 H66S        5.8070    9.2030   -6.8930 H         1 NGL1        0.0000
    117 C67         5.4130   11.1390   -5.9730 C.3       1 NGL1        0.0000
    118 H67R        6.1480   11.1550   -5.1340 H         1 NGL1        0.0000
    119 H67S        4.5220   11.7080   -5.6320 H         1 NGL1        0.0000
    120 C68         6.0820   11.8280   -7.1700 C.3       1 NGL1        0.0000
    121 H68R        6.3890   11.0690   -7.9230 H         1 NGL1        0.0000
    122 H68S        7.0090   12.3250   -6.8030 H         1 NGL1        0.0000
    123 C69         5.2450   12.9200   -7.8470 C.3       1 NGL1        0.0000
    124 H69R        5.0520   13.7170   -7.0940 H         1 NGL1        0.0000
    125 H69S        4.2630   12.5160   -8.1760 H         1 NGL1        0.0000
    126 C610        6.0000   13.5190   -9.0440 C.3       1 NGL1        0.0000
    127 H610        5.7260   12.9710   -9.9710 H         1 NGL1        0.0000
    128 H610        7.0930   13.3670   -8.8850 H         1 NGL1        0.0000
    129 C611        5.7800   15.0240   -9.2360 C.3       1 NGL1        0.0000
    130 H611        6.0270   15.5450   -8.2820 H         1 NGL1        0.0000
    131 H611        4.7050   15.2150   -9.4550 H         1 NGL1        0.0000
    132 C612        6.6500   15.6020  -10.3560 C.3       1 NGL1        0.0000
    133 H612        6.3810   15.1450  -11.3320 H         1 NGL1        0.0000
    134 H612        7.7240   15.3930  -10.1580 H         1 NGL1        0.0000
    135 H612        6.5180   16.7030  -10.4320 H         1 NGL1        0.0000
    136 C54        -0.2280    6.3520   -4.3120 C.3       1 NGL1        0.0000
    137 H54R       -0.3100    7.1370   -3.5290 H         1 NGL1        0.0000
    138 H54S       -1.2590    6.0790   -4.6330 H         1 NGL1        0.0000
    139 C55         0.5300    6.9280   -5.5220 C.3       1 NGL1        0.0000
    140 H55R        0.7820    6.0900   -6.2110 H         1 NGL1        0.0000
    141 H55S        1.4840    7.3750   -5.1610 H         1 NGL1        0.0000
    142 C56        -0.2350    7.9780   -6.3340 C.3       1 NGL1        0.0000
    143 H56R       -0.4390    8.8610   -5.6920 H         1 NGL1        0.0000
    144 H56S       -1.2190    7.5600   -6.6440 H         1 NGL1        0.0000
    145 C57         0.5440    8.3970   -7.5950 C.3       1 NGL1        0.0000
    146 H57R        0.1030    7.8760   -8.4730 H         1 NGL1        0.0000
    147 H57S        1.6050    8.0660   -7.5120 H         1 NGL1        0.0000
    148 C58         0.5370    9.9060   -7.8530 C.3       1 NGL1        0.0000
    149 H58R        1.1890   10.3970   -7.0970 H         1 NGL1        0.0000
    150 H58S       -0.4950   10.2960   -7.7070 H         1 NGL1        0.0000
    151 C59         1.0130   10.2660   -9.2710 C.3       1 NGL1        0.0000
    152 H59R        0.2920    9.8530  -10.0130 H         1 NGL1        0.0000
    153 H59S        1.9960    9.7850   -9.4680 H         1 NGL1        0.0000
    154 C510        1.1340   11.7850   -9.4610 C.3       1 NGL1        0.0000
    155 H510        1.7410   12.2100   -8.6300 H         1 NGL1        0.0000
    156 H510        0.1160   12.2290   -9.3920 H         1 NGL1        0.0000
    157 C511        1.8060   12.2070  -10.7760 C.3       1 NGL1        0.0000
    158 H511        1.3810   11.6220  -11.6220 H         1 NGL1        0.0000
    159 H511        2.8910   11.9700  -10.7080 H         1 NGL1        0.0000
    160 C512        1.6230   13.7060  -11.0680 C.3       1 NGL1        0.0000
    161 H512        1.7860   14.2920  -10.1370 H         1 NGL1        0.0000
    162 H512        0.5660   13.8670  -11.3800 H         1 NGL1        0.0000
    163 C513        2.5540   14.2510  -12.1630 C.3       1 NGL1        0.0000
    164 H513        2.8590   13.4190  -12.8370 H         1 NGL1        0.0000
    165 H513        3.4820   14.6390  -11.6820 H         1 NGL1        0.0000
    166 C514        1.9070   15.3540  -13.0100 C.3       1 NGL1        0.0000
    167 H514        1.5320   16.1770  -12.3640 H         1 NGL1        0.0000
    168 H514        1.0480   14.9430  -13.5830 H         1 NGL1        0.0000
    169 H514        2.6350   15.7780  -13.7350 H         1 NGL1        0.0000
    170 C33         2.9360    6.8050    1.2200 C.3       1 NGL1        0.0000
    171 H33R        3.8870    7.3560    1.4250 H         1 NGL1        0.0000
    172 O33         2.0000    7.1930    2.2070 O.3       1 NGL1        0.0000
    173 HO33        1.1490    6.7440    2.1210 H         1 NGL1        0.0000
    174 C34         2.4410    7.2270   -0.1720 C.3       1 NGL1        0.0000
    175 H34R        1.4590    6.7570   -0.4060 H         1 NGL1        0.0000
    176 H34S        3.1770    6.8460   -0.9160 H         1 NGL1        0.0000
    177 C35         2.2970    8.7440   -0.3690 C.3       1 NGL1        0.0000
    178 H35R        3.1290    9.2960    0.1210 H         1 NGL1        0.0000
    179 H35S        1.3410    9.0830    0.0870 H         1 NGL1        0.0000
    180 C36         2.3030    9.0650   -1.8580 C.3       1 NGL1        0.0000
    181 H36R        1.7920    8.2380   -2.4040 H         1 NGL1        0.0000
    182 H36S        3.3570    9.0780   -2.2120 H         1 NGL1        0.0000
    183 C37         1.6430   10.3840   -2.2490 C.3       1 NGL1        0.0000
    184 H37R        2.2870   11.2260   -1.9180 H         1 NGL1        0.0000
    185 H37S        0.6580   10.4930   -1.7440 H         1 NGL1        0.0000
    186 C38         1.4650   10.3690   -3.7690 C.3       1 NGL1        0.0000
    187 H38R        0.4830    9.9190   -4.0270 H         1 NGL1        0.0000
    188 H38S        2.2260    9.6670   -4.1800 H         1 NGL1        0.0000
    189 C39         1.7060   11.6910   -4.4900 C.3       1 NGL1        0.0000
    190 H39R        2.2660   11.4480   -5.4280 H         1 NGL1        0.0000
    191 H39S        2.3390   12.3800   -3.8860 H         1 NGL1        0.0000
    192 C310        0.4070   12.3550   -4.9350 C.3       1 NGL1        0.0000
    193 H310        0.0010   12.9540   -4.0990 H         1 NGL1        0.0000
    194 H310       -0.3570   11.5850   -5.1990 H         1 NGL1        0.0000
    195 C311        0.6690   13.2580   -6.1360 C.3       1 NGL1        0.0000
    196 H311        0.3410   12.7220   -7.0530 H         1 NGL1        0.0000
    197 H311        1.7680   13.4480   -6.2150 H         1 NGL1        0.0000
    198 C312       -0.0420   14.6000   -6.0410 C.3       1 NGL1        0.0000
    199 H312        0.3920   15.2090   -5.2220 H         1 NGL1        0.0000
    200 H312       -1.1230   14.4590   -5.8380 H         1 NGL1        0.0000
    201 H312        0.0800   15.1540   -6.9940 H         1 NGL1        0.0000
    202 C11         4.0700    1.7220   -1.1480 C.2       1 NGL1        0.0000
    203 O11         3.8930    2.9130   -1.3860 O.2       1 NGL1        0.0000
    204 C12         5.0240    0.8630   -1.9650 C.3       1 NGL1        0.0000
    205 H12R        4.4010    0.1340   -2.5250 H         1 NGL1        0.0000
    206 H12S        5.6720    0.2790   -1.2800 H         1 NGL1        0.0000
    207 C13         5.8550    1.7180   -2.9470 C.3       1 NGL1        0.0000
    208 H13R        5.3100    2.6580   -3.1910 H         1 NGL1        0.0000
    209 O13         6.1430    0.9350   -4.1210 O.3       1 NGL1        0.0000
    210 C21         5.6340    1.4110   -5.2610 C.2       1 NGL1        0.0000
    211 O21         4.9970    2.4270   -5.3870 O.2       1 NGL1        0.0000
    212 C22         6.0530    0.5260   -6.4390 C.3       1 NGL1        0.0000
    213 H22S        5.1670    0.4080   -7.0950 H         1 NGL1        0.0000
    214 H22R        6.3310   -0.4710   -6.0390 H         1 NGL1        0.0000
    215 C23         7.2360    1.1180   -7.2480 C.3       1 NGL1        0.0000
    216 H23R        7.6020    0.3130   -7.9280 H         1 NGL1        0.0000
    217 H23S        8.0740    1.3790   -6.5650 H         1 NGL1        0.0000
    218 C24         6.8900    2.3320   -8.1340 C.3       1 NGL1        0.0000
    219 H24R        6.6020    3.1990   -7.4970 H         1 NGL1        0.0000
    220 H24S        6.0130    2.0800   -8.7720 H         1 NGL1        0.0000
    221 C25         8.0710    2.7270   -9.0430 C.3       1 NGL1        0.0000
    222 H25R        8.4060    1.8180   -9.5920 H         1 NGL1        0.0000
    223 H25S        8.9190    3.0650   -8.4070 H         1 NGL1        0.0000
    224 C26         7.7500    3.8150  -10.0850 C.3       1 NGL1        0.0000
    225 H26R        7.3600    4.7280   -9.5800 H         1 NGL1        0.0000
    226 H26S        6.9530    3.4380  -10.7630 H         1 NGL1        0.0000
    227 C27         8.9860    4.2010  -10.9200 C.3       1 NGL1        0.0000
    228 H27R        9.5720    3.2840  -11.1590 H         1 NGL1        0.0000
    229 H27S        9.6370    4.8530  -10.2950 H         1 NGL1        0.0000
    230 C28         8.6570    4.9200  -12.2400 C.3       1 NGL1        0.0000
    231 H28R        7.6420    5.3710  -12.1770 H         1 NGL1        0.0000
    232 H28S        8.6350    4.1670  -13.0610 H         1 NGL1        0.0000
    233 C29         9.6670    6.0300  -12.5870 C.3       1 NGL1        0.0000
    234 H29R       10.6950    5.6040  -12.5820 H         1 NGL1        0.0000
    235 H29S        9.6250    6.8190  -11.8020 H         1 NGL1        0.0000
    236 C210        9.3980    6.6730  -13.9560 C.3       1 NGL1        0.0000
    237 H210        8.4010    7.1670  -13.9370 H         1 NGL1        0.0000
    238 H210        9.3630    5.8730  -14.7300 H         1 NGL1        0.0000
    239 C211       10.4620    7.7020  -14.3670 C.3       1 NGL1        0.0000
    240 H211       11.4510    7.1910  -14.4130 H         1 NGL1        0.0000
    241 H211       10.5300    8.4910  -13.5850 H         1 NGL1        0.0000
    242 C212       10.1740    8.3590  -15.7210 C.3       1 NGL1        0.0000
    243 H212        9.2380    8.9550  -15.6740 H         1 NGL1        0.0000
    244 H212       10.0560    7.5860  -16.5110 H         1 NGL1        0.0000
    245 H212       11.0060    9.0350  -16.0140 H         1 NGL1        0.0000
    246 C14         7.1900    2.1240   -2.2860 C.3       1 NGL1        0.0000
    247 H14R        7.6650    1.2050   -1.8750 H         1 NGL1        0.0000
    248 H14S        6.9520    2.7920   -1.4280 H         1 NGL1        0.0000
    249 C15         8.2040    2.8250   -3.2070 C.3       1 NGL1        0.0000
    250 H15R        8.5660    2.1080   -3.9780 H         1 NGL1        0.0000
    251 H15S        9.0790    3.1140   -2.5830 H         1 NGL1        0.0000
    252 C16         7.6670    4.0830   -3.9030 C.3       1 NGL1        0.0000
    253 H16R        7.0160    4.6460   -3.1980 H         1 NGL1        0.0000
    254 H16S        7.0370    3.7850   -4.7700 H         1 NGL1        0.0000
    255 C17         8.8010    4.9950   -4.3900 C.3       1 NGL1        0.0000
    256 H17R        9.5310    4.3940   -4.9770 H         1 NGL1        0.0000
    257 H17S        9.3370    5.4050   -3.5040 H         1 NGL1        0.0000
    258 C18         8.3060    6.1570   -5.2580 C.3       1 NGL1        0.0000
    259 H18R        7.5490    6.7340   -4.6800 H         1 NGL1        0.0000
    260 H18S        7.8030    5.7510   -6.1640 H         1 NGL1        0.0000
    261 C19         9.4410    7.1020   -5.6760 C.3       1 NGL1        0.0000
    262 H19R       10.1880    6.5480   -6.2870 H         1 NGL1        0.0000
    263 H19S        9.9570    7.4640   -4.7580 H         1 NGL1        0.0000
    264 C110        8.9450    8.3190   -6.4680 C.3       1 NGL1        0.0000
    265 H110        8.1120    8.7950   -5.9020 H         1 NGL1        0.0000
    266 H110        8.5400    7.9890   -7.4500 H         1 NGL1        0.0000
    267 C111       10.0500    9.3630   -6.6820 C.3       1 NGL1        0.0000
    268 H111       10.8630    8.9340   -7.3090 H         1 NGL1        0.0000
    269 H111       10.4870    9.6250   -5.6910 H         1 NGL1        0.0000
    270 C112        9.5180   10.6460   -7.3300 C.3       1 NGL1        0.0000
    271 H112        8.6420   10.9850   -6.7360 H         1 NGL1        0.0000
    272 H112        9.1680   10.4290   -8.3630 H         1 NGL1        0.0000
    273 C113       10.5470   11.7820   -7.3570 C.3       1 NGL1        0.0000
    274 H113       11.4400   11.4480   -7.9330 H         1 NGL1        0.0000
    275 H113       10.8800   11.9860   -6.3130 H         1 NGL1        0.0000
    276 C114       10.0000   13.0750   -7.9690 C.3       1 NGL1        0.0000
    277 H114        9.1000   13.4170   -7.4140 H         1 NGL1        0.0000
    278 H114        9.7140   12.9100   -9.0310 H         1 NGL1        0.0000
    279 H114       10.7630   13.8810   -7.9300 H         1 NGL1        0.0000
@<TRIPOS>BOND
     1  244  242 1 
     2  245  242 1 
     3  242  243 1 
     4  242  239 1 
     5  238  236 1 
     6  240  239 1 
     7  239  236 1 
     8  239  241 1 
     9  236  237 1 
    10  236  233 1 
    11  169  166 1 
    12  168  166 1 
    13  232  230 1 
    14  166  167 1 
    15  166  163 1 
    16  164  163 1 
    17  233  234 1 
    18  233  230 1 
    19  233  235 1 
    20  230  231 1 
    21  230  227 1 
    22  163  165 1 
    23  163  160 1 
    24  158  157 1 
    25  162  160 1 
    26  133  132 1 
    27  228  227 1 
    28  160  157 1 
    29  160  161 1 
    30  227  229 1 
    31  227  224 1 
    32  157  159 1 
    33  157  154 1 
    34  226  224 1 
    35  135  132 1 
    36  132  134 1 
    37  132  129 1 
    38  224  225 1 
    39  224  221 1 
    40  152  151 1 
    41  127  126 1 
    42  222  221 1 
    43  153  151 1 
    44  154  156 1 
    45  154  151 1 
    46  154  155 1 
    47  131  129 1 
    48  151  148 1 
    49  129  126 1 
    50  129  130 1 
    51  126  128 1 
    52  126  123 1 
    53  221  223 1 
    54  221  218 1 
    55  278  276 1 
    56  220  218 1 
    57  146  145 1 
    58  272  270 1 
    59  125  123 1 
    60  218  219 1 
    61  218  215 1 
    62  276  279 1 
    63  276  277 1 
    64  276  273 1 
    65  274  273 1 
    66  216  215 1 
    67  121  120 1 
    68  148  150 1 
    69  148  145 1 
    70  148  149 1 
    71  123  120 1 
    72  123  124 1 
    73  145  147 1 
    74  145  142 1 
    75  266  264 1 
    76  273  270 1 
    77  273  275 1 
    78  270  271 1 
    79  270  267 1 
    80  268  267 1 
    81  215  217 1 
    82  215  212 1 
    83  120  122 1 
    84  120  117 1 
    85  213  212 1 
    86  196  195 1 
    87  201  198 1 
    88  116  114 1 
    89  115  114 1 
    90  267  264 1 
    91  267  269 1 
    92  144  142 1 
    93  264  265 1 
    94  264  261 1 
    95  212  214 1 
    96  212  210 1 
    97  142  143 1 
    98  142  139 1 
    99  262  261 1 
   100  114  117 1 
   101  114  111 1 
   102  197  195 1 
   103  140  139 1 
   104  260  258 1 
   105  195  198 1 
   106  195  192 1 
   107  198  200 1 
   108  198  199 1 
   109  117  119 1 
   110  117  118 1 
   111  110  108 1 
   112   63   62 1 
   113  261  258 1 
   114  261  263 1 
   115  109  108 1 
   116   62   60 1 
   117  139  141 1 
   118  139  136 1 
   119  190  189 1 
   120  101  100 2 
   121  211  210 2 
   122  210  209 1 
   123  258  259 1 
   124  258  255 1 
   125   69   67 1 
   126  194  192 1 
   127   65   64 1 
   128  108  111 1 
   129  108  105 1 
   130  256  255 1 
   131  192  189 1 
   132  192  193 1 
   133  111  112 1 
   134  111  113 1 
   135  254  252 1 
   136   29   27 1 
   137  138  136 1 
   138  189  191 1 
   139  189  186 1 
   140   98   97 1 
   141  103  102 1 
   142  255  252 1 
   143  255  257 1 
   144  136   97 1 
   145  136  137 1 
   146   28   27 1 
   147   60   64 1 
   148   60   27 1 
   149   60   61 1 
   150  100  102 1 
   151  100   99 1 
   152   64   67 1 
   153   64   66 1 
   154   67   68 1 
   155   67   70 1 
   156  188  186 1 
   157  209  207 1 
   158   27   25 1 
   159   75   73 1 
   160  187  186 1 
   161  250  249 1 
   162  252  249 1 
   163  252  253 1 
   164  186  183 1 
   165  102  105 1 
   166  102  104 1 
   167   97   99 1 
   168   97   94 1 
   169  105  106 1 
   170  105  107 1 
   171   93   92 2 
   172   71   70 1 
   173   70   73 1 
   174   70   72 1 
   175  249  251 1 
   176  249  246 1 
   177  208  207 1 
   178   73   74 1 
   179   73   76 1 
   180   21   18 2 
   181   81   79 1 
   182  207  246 1 
   183  207  204 1 
   184   25   23 1 
   185   25   26 2 
   186   23   22 1 
   187   92   94 1 
   188   92   32 am
   189   77   76 1 
   190  205  204 1 
   191   89   88 1 
   192   19   18 1 
   193   87   85 1 
   194  181  180 1 
   195   94   95 1 
   196   94   96 1 
   197  246  247 1 
   198  246  248 1 
   199  183  184 1 
   200  183  180 1 
   201  183  185 1 
   202  182  180 1 
   203   31   30 1 
   204   76   79 1 
   205   76   78 1 
   206   83   82 1 
   207   79   82 1 
   208   79   80 1 
   209  204  206 1 
   210  204  202 1 
   211   18   20 1 
   212   18   17 1 
   213  180  177 1 
   214   16   15 1 
   215   88   85 1 
   216   88   91 1 
   217   88   90 1 
   218   32   30 1 
   219   32   33 1 
   220   85   82 1 
   221   85   86 1 
   222   82   84 1 
   223  203  202 2 
   224   30   22 1 
   225   30    9 1 
   226   22   15 1 
   227   22   24 1 
   228  202   58 am
   229   15   17 1 
   230   15    6 1 
   231   42   41 1 
   232   57   56 1 
   233  176  174 1 
   234   45   47 2 
   235  175  174 1 
   236  177  174 1 
   237  177  179 1 
   238  177  178 1 
   239   58   56 1 
   240   58   59 1 
   241   11    9 1 
   242   11   12 1 
   243  174  170 1 
   244    5    4 1 
   245    9    7 1 
   246    9   10 1 
   247   56   41 1 
   248   56   48 1 
   249   41   40 1 
   250   41   43 1 
   251   40   38 1 
   252    7    6 1 
   253   35   34 1 
   254    6    4 1 
   255    6    8 1 
   256   54   53 1 
   257   46   47 1 
   258    4    1 1 
   259    4    2 1 
   260   47   43 1 
   261   47   44 1 
   262   13   12 1 
   263   12   38 1 
   264   12   14 1 
   265   38   34 1 
   266   38   39 1 
   267   51   50 1 
   268   51   52 2 
   269   51   53 1 
   270   48   34 1 
   271   48   50 1 
   272   48   49 1 
   273   34   36 1 
   274  170   53 1 
   275  170  171 1 
   276  170  172 1 
   277   53   55 1 
   278    3    2 1 
   279  173  172 1 
   280   37   36 1 
