@<TRIPOS>MOLECULE
C:\Users\Praveer\PycharmProjects\pdb_to_mol2_converter\data\pdb\nic.pdb
   16    16     0     0     0
SMALL
GASTEIGER

@<TRIPOS>ATOM
      1 H1          2.4320   -1.9530   -0.2430 H         1 NIC1        0.0000
      2 N2          1.8930   -1.0950   -0.1490 N.pl3     1 NIC1        0.0000
      3 C3          2.5170    0.0820    0.0020 C.2       1 NIC1        0.0000
      4 H4          3.6140    0.0970    0.0110 H         1 NIC1        0.0000
      5 C5          1.8090    1.2490    0.1560 C.2       1 NIC1        0.0000
      6 H6          2.3150    2.2080    0.2900 H         1 NIC1        0.0000
      7 C7          0.4250    1.2150    0.1550 C.3       1 NIC1        0.0000
      8 H8         -0.1520    2.1280    0.3280 H         1 NIC1        0.0000
      9 C9         -0.2160   -0.0100   -0.0170 C.2       1 NIC1        0.0000
     10 C10         0.5510   -1.1440   -0.1540 C.2       1 NIC1        0.0000
     11 H11         0.0670   -2.1230   -0.2530 H         1 NIC1        0.0000
     12 C12        -1.7240   -0.0710    0.0460 C.2       1 NIC1        0.0000
     13 O13        -2.2510   -1.1460    0.2990 O.2       1 NIC1        0.0000
     14 N14        -2.4110    1.0460   -0.2830 N.am      1 NIC1        0.0000
     15 H15        -3.4020    0.9340   -0.3700 H         1 NIC1        0.0000
     16 H16        -1.9960    1.8290   -0.7360 H         1 NIC1        0.0000
@<TRIPOS>BOND
     1   16   14 1 
     2   15   14 1 
     3   14   12 am
     4   11   10 1 
     5    1    2 1 
     6   10    2 1 
     7   10    9 2 
     8    2    3 1 
     9    9   12 1 
    10    9    7 1 
    11    3    4 1 
    12    3    5 2 
    13   12   13 2 
    14    7    5 1 
    15    7    8 1 
    16    5    6 1 
