@<TRIPOS>MOLECULE
C:\Users\Praveer\PycharmProjects\pdb_to_mol2_converter\data\pdb\nich.pdb
   17    17     0     0     0
SMALL
GASTEIGER

@<TRIPOS>ATOM
      1 H1         -0.5270   -0.8910   -0.0000 H         1 NIC1        0.0000
      2 N2         -0.0250   -0.0080   -0.0000 N.pl3     1 NIC1        0.0000
      3 C3         -0.7300    1.1670    0.0000 C.2       1 NIC1        0.0000
      4 H4         -1.8240    1.1570    0.0000 H         1 NIC1        0.0000
      5 C5         -0.1120    2.3370    0.0000 C.2       1 NIC1        0.0000
      6 H6         -0.7010    3.2550    0.0000 H         1 NIC1        0.0000
      7 C7          1.3790    2.5240   -0.0000 C.3       1 NIC1        0.0000
      8 H8          1.6890    3.0940    0.9020 H         1 NIC1        0.0000
      9 H17         1.6890    3.0940   -0.9020 H         1 NIC1        0.0000
     10 C10         1.3570    0.0270   -0.0000 C.2       1 NIC1        0.0000
     11 H11         1.8710   -0.9350   -0.0000 H         1 NIC1        0.0000
     12 C9          2.0870    1.1700   -0.0000 C.2       1 NIC1        0.0000
     13 C12         3.6110    1.1250    0.0000 C.2       1 NIC1        0.0000
     14 O13         4.2310    2.1830    0.0000 O.2       1 NIC1        0.0000
     15 N14         4.2370   -0.0760    0.0000 N.am      1 NIC1        0.0000
     16 H15         3.7560   -0.9470    0.0000 H         1 NIC1        0.0000
     17 H16         5.2340   -0.0490    0.0000 H         1 NIC1        0.0000
@<TRIPOS>BOND
     1    9    7 1 
     2    1    2 1 
     3    2    3 1 
     4    2   10 1 
     5    3    4 1 
     6    3    5 2 
     7    5    6 1 
     8    5    7 1 
     9    7   12 1 
    10    7    8 1 
    11   10   11 1 
    12   10   12 2 
    13   12   13 1 
    14   13   14 2 
    15   13   15 am
    16   15   16 1 
    17   15   17 1 
