@<TRIPOS>MOLECULE
C:\Users\Praveer\PycharmProjects\pdb_to_mol2_converter\data\pdb\nime.pdb
    7     6     0     0     0
SMALL
GASTEIGER

@<TRIPOS>ATOM
      1 C1          1.9630    1.2860    0.0060 C.3       1 NIM1        0.0000
      2 H11         2.4000    1.4420    1.0140 H         1 NIM1        0.0000
      3 H12         1.2510    2.1050   -0.2300 H         1 NIM1        0.0000
      4 H13         2.7700    1.2600   -0.7570 H         1 NIM1        0.0000
      5 N2          1.2520   -0.0100   -0.0010 N.pl3     1 NIM1        0.0000
      6 O21         0.0300    0.0230    0.0810 O.2       1 NIM1        0.0000
      7 O22         1.9460   -1.0160   -0.0830 O.2       1 NIM1        0.0000
@<TRIPOS>BOND
     1    4    1 1 
     2    3    1 1 
     3    7    5 2 
     4    5    1 1 
     5    5    6 2 
     6    1    2 1 
