@<TRIPOS>MOLECULE
C:\Users\Praveer\PycharmProjects\pdb_to_mol2_converter\data\pdb\nipr.pdb
   13    12     0     0     0
SMALL
GASTEIGER

@<TRIPOS>ATOM
      1 C1         -0.0010   -0.0210    0.0000 C.3       1 NIP1        0.0000
      2 H11        -0.4160    0.4690    0.8920 H         1 NIP1        0.0000
      3 H12        -0.4160    0.4700   -0.8920 H         1 NIP1        0.0000
      4 N1         -0.5140   -1.4330   -0.0000 N.pl3     1 NIP1        0.0000
      5 O11        -0.6990   -1.9460    1.0970 O.2       1 NIP1        0.0000
      6 O12        -0.6980   -1.9460   -1.0980 O.2       1 NIP1        0.0000
      7 C2          1.5410    0.0070    0.0010 C.3       1 NIP1        0.0000
      8 H21         1.9180   -0.5300   -0.8990 H         1 NIP1        0.0000
      9 H22         1.9170   -0.5310    0.9000 H         1 NIP1        0.0000
     10 C3          2.0750    1.4470    0.0020 C.3       1 NIP1        0.0000
     11 H31         1.7310    1.9970    0.9040 H         1 NIP1        0.0000
     12 H32         1.7310    1.9980   -0.9010 H         1 NIP1        0.0000
     13 H33         3.1870    1.4460    0.0020 H         1 NIP1        0.0000
@<TRIPOS>BOND
     1    6    4 2 
     2   12   10 1 
     3    8    7 1 
     4    3    1 1 
     5    1    4 1 
     6    1    7 1 
     7    1    2 1 
     8    4    5 2 
     9    7   10 1 
    10    7    9 1 
    11   10   13 1 
    12   10   11 1 
