@<TRIPOS>MOLECULE
C:\Users\Praveer\PycharmProjects\pdb_to_mol2_converter\data\pdb\nitb.pdb
   14    14     0     0     0
SMALL
GASTEIGER

@<TRIPOS>ATOM
      1 C1          1.4010    0.0070   -0.0000 C.ar      1 NIT1        0.0000
      2 H1          1.9600   -0.9180   -0.0000 H         1 NIT1        0.0000
      3 C2          2.1020    1.2180   -0.0000 C.ar      1 NIT1        0.0000
      4 H2          3.1840    1.2220   -0.0000 H         1 NIT1        0.0000
      5 C3          1.4020    2.4280    0.0000 C.ar      1 NIT1        0.0000
      6 H3          1.9420    3.3640    0.0000 H         1 NIT1        0.0000
      7 C4          0.0040    2.4290   -0.0000 C.ar      1 NIT1        0.0000
      8 H4         -0.5340    3.3680    0.0000 H         1 NIT1        0.0000
      9 C5         -0.6940    1.2170   -0.0000 C.ar      1 NIT1        0.0000
     10 H5         -1.7750    1.2380   -0.0000 H         1 NIT1        0.0000
     11 C6         -0.0190   -0.0330   -0.0000 C.ar      1 NIT1        0.0000
     12 N6         -0.7520   -1.3020   -0.0000 N.pl3     1 NIT1        0.0000
     13 O6A        -1.9810   -1.2480   -0.0000 O.2       1 NIT1        0.0000
     14 O6B        -0.0900   -2.3390    0.0000 O.2       1 NIT1        0.0000
@<TRIPOS>BOND
     1    1    2 1 
     2    1    3 ar
     3    1   11 ar
     4    3    4 1 
     5    3    5 ar
     6    5    6 1 
     7    5    7 ar
     8    7    8 1 
     9    7    9 ar
    10    9   10 1 
    11    9   11 ar
    12   11   12 1 
    13   12   13 2 
    14   12   14 2 
