@<TRIPOS>MOLECULE
C:\Users\Praveer\PycharmProjects\pdb_to_mol2_converter\data\pdb\nma.pdb
   12    11     0     0     0
SMALL
GASTEIGER

@<TRIPOS>ATOM
      1 CL          1.9950   -1.2770   -0.0000 C.3       1 NMA1        0.0000
      2 HL1         1.2800   -2.1280   -0.0010 H         1 NMA1        0.0000
      3 HL2         2.6320   -1.3450    0.9060 H         1 NMA1        0.0000
      4 HL3         2.6310   -1.3440   -0.9080 H         1 NMA1        0.0000
      5 C           1.2380   -0.0030    0.0010 C.2       1 NMA1        0.0000
      6 O           0.0140    0.0020    0.0010 O.2       1 NMA1        0.0000
      7 N           1.9660    1.1220    0.0010 N.am      1 NMA1        0.0000
      8 H           2.9580    1.0690    0.0010 H         1 NMA1        0.0000
      9 CR          1.3490    2.4280    0.0030 C.3       1 NMA1        0.0000
     10 HR1         0.7090    2.5590    0.9050 H         1 NMA1        0.0000
     11 HR2         0.7080    2.5610   -0.8980 H         1 NMA1        0.0000
     12 HR3         2.1230    3.2270    0.0030 H         1 NMA1        0.0000
@<TRIPOS>BOND
     1    4    1 1 
     2   11    9 1 
     3    2    1 1 
     4    1    5 1 
     5    1    3 1 
     6    5    6 2 
     7    5    7 am
     8    7    8 1 
     9    7    9 1 
    10    9   12 1 
    11    9   10 1 
