@<TRIPOS>MOLECULE
C:\Users\Praveer\PycharmProjects\pdb_to_mol2_converter\data\pdb\nmba.pdb
   21    20     0     0     0
SMALL
GASTEIGER

@<TRIPOS>ATOM
      1 C7          1.1130   -0.0010   -0.0100 C.3       1 NMB1        0.0000
      2 H71         1.5210   -0.4760   -0.9270 H         1 NMB1        0.0000
      3 H72         0.0030    0.0050   -0.0130 H         1 NMB1        0.0000
      4 H73         1.5160   -0.4790    0.9090 H         1 NMB1        0.0000
      5 N8          1.5690    1.4310   -0.0070 N.4       1 NMB1        0.0000
      6 H81         1.2690    1.9010   -0.8500 H         1 NMB1        0.0000
      7 H82         2.5800    1.4810   -0.0350 H         1 NMB1        0.0000
      8 C9          1.1200    2.2600    1.1750 C.3       1 NMB1        0.0000
      9 H91         1.4700    1.7210    2.0730 H         1 NMB1        0.0000
     10 H92         0.0150    2.2540    1.1470 H         1 NMB1        0.0000
     11 C10         1.6610    3.6530    1.0600 C.2       1 NMB1        0.0000
     12 H10         1.0360    4.3610    0.4940 H         1 NMB1        0.0000
     13 C11         2.7810    4.1450    1.6270 C.2       1 NMB1        0.0000
     14 C12         3.1490    5.5880    1.4110 C.3       1 NMB1        0.0000
     15 H121        2.4260    6.1480    0.7760 H         1 NMB1        0.0000
     16 H122        4.1460    5.6720    0.9260 H         1 NMB1        0.0000
     17 H123        3.2140    6.1240    2.3830 H         1 NMB1        0.0000
     18 C13         3.7310    3.3410    2.4760 C.3       1 NMB1        0.0000
     19 H131        3.4680    2.2710    2.6070 H         1 NMB1        0.0000
     20 H132        3.7990    3.7840    3.4950 H         1 NMB1        0.0000
     21 H133        4.7560    3.3750    2.0460 H         1 NMB1        0.0000
@<TRIPOS>BOND
     1    2    1 1 
     2    6    5 1 
     3    7    5 1 
     4    3    1 1 
     5    1    5 1 
     6    1    4 1 
     7    5    8 1 
     8   12   11 1 
     9   15   14 1 
    10   16   14 1 
    11   11    8 1 
    12   11   13 2 
    13   10    8 1 
    14    8    9 1 
    15   14   13 1 
    16   14   17 1 
    17   13   18 1 
    18   21   18 1 
    19   18   19 1 
    20   18   20 1 
