@<TRIPOS>MOLECULE
C:\Users\Praveer\PycharmProjects\pdb_to_mol2_converter\data\pdb\nmcy.pdb
   17    17     0     0     0
SMALL
GASTEIGER

@<TRIPOS>ATOM
      1 N1          1.3890   -0.0110    0.0160 N.pl3     1 NMC1        0.0000
      2 H1          1.9510   -0.8380    0.0750 H         1 NMC1        0.0000
      3 C2          2.0720    1.1720    0.2630 C.3       1 NMC1        0.0000
      4 N2          3.4160    1.0680    0.4200 N.3       1 NMC1        0.0000
      5 H2          3.7940    0.3080   -0.1290 H         1 NMC1        0.0000
      6 N3          1.4480    2.3540    0.3210 N.2       1 NMC1        0.0000
      7 C4          0.0800    2.4040    0.1230 C.2       1 NMC1        0.0000
      8 N4         -0.5480    3.5710    0.1350 N.pl3     1 NMC1        0.0000
      9 H4          0.1590    4.2550    0.3040 H         1 NMC1        0.0000
     10 C5         -0.6740    1.2110   -0.0920 C.2       1 NMC1        0.0000
     11 H5         -1.7390    1.2820   -0.2210 H         1 NMC1        0.0000
     12 C6          0.0010   -0.0040   -0.1400 C.2       1 NMC1        0.0000
     13 H6         -0.5150   -0.9430   -0.3060 H         1 NMC1        0.0000
     14 C7          4.3180    2.2440    0.3530 C.3       1 NMC1        0.0000
     15 H71         3.9910    3.0340    1.0670 H         1 NMC1        0.0000
     16 H72         4.3290    2.6860   -0.6680 H         1 NMC1        0.0000
     17 H73         5.3600    1.9650    0.6280 H         1 NMC1        0.0000
@<TRIPOS>BOND
     1   16   14 1 
     2   13   12 1 
     3   11   10 1 
     4   12   10 2 
     5   12    1 1 
     6    5    4 1 
     7   10    7 1 
     8    1    2 1 
     9    1    3 1 
    10    7    8 1 
    11    7    6 2 
    12    8    9 1 
    13    3    6 1 
    14    3    4 1 
    15   14    4 1 
    16   14   17 1 
    17   14   15 1 
