@<TRIPOS>MOLECULE
C:\Users\Praveer\PycharmProjects\pdb_to_mol2_converter\data\pdb\nmgi.pdb
   13    12     0     0     0
SMALL
GASTEIGER

@<TRIPOS>ATOM
      1 C7          1.1230   -0.0090   -0.0060 C.3       1 NMG1        0.0000
      2 H71         1.5660   -0.4700   -0.9130 H         1 NMG1        0.0000
      3 H72         0.0130    0.0090   -0.0560 H         1 NMG1        0.0000
      4 H73         1.4880   -0.4870    0.9260 H         1 NMG1        0.0000
      5 N8          1.5730    1.4190    0.0240 N.4       1 NMG1        0.0000
      6 H81         1.2240    1.8970   -0.8120 H         1 NMG1        0.0000
      7 H82         2.5730    1.5190    0.0010 H         1 NMG1        0.0000
      8 C9          0.9780    2.2750    1.1450 C.3       1 NMG1        0.0000
      9 H91         1.8150    2.8240    1.5930 H         1 NMG1        0.0000
     10 H92         0.5060    1.5870    1.8540 H         1 NMG1        0.0000
     11 C10        -0.0520    3.2540    0.5670 C.2       1 NMG1        0.0000
     12 O101       -0.6330    3.9650    1.4180 O.co2     1 NMG1        0.0000
     13 O102       -0.1980    3.2470   -0.6860 O.co2     1 NMG1        0.0000
@<TRIPOS>BOND
     1    2    1 1 
     2    6    5 1 
     3   13   11 ar
     4    3    1 1 
     5    1    5 1 
     6    1    4 1 
     7    7    5 1 
     8    5    8 1 
     9   11    8 1 
    10   11   12 ar
    11    8    9 1 
    12    8   10 1 
