@<TRIPOS>MOLECULE
C:\Users\Praveer\PycharmProjects\pdb_to_mol2_converter\data\pdb\nmgn.pdb
   13    12     0     0     0
SMALL
GASTEIGER

@<TRIPOS>ATOM
      1 C1          1.0950    0.0410   -0.0720 C.3       1 NMG1        0.0000
      2 H11        -0.0120    0.0420   -0.1890 H         1 NMG1        0.0000
      3 H12         1.3300   -0.4080    0.9180 H         1 NMG1        0.0000
      4 H13         1.5180   -0.6220   -0.8620 H         1 NMG1        0.0000
      5 N2          1.6320    1.4010   -0.1880 N.3       1 NMG1        0.0000
      6 H2          1.1780    1.9470    0.5540 H         1 NMG1        0.0000
      7 C3          3.1290    1.3960   -0.0860 C.3       1 NMG1        0.0000
      8 H31         3.5390    0.8010   -0.9300 H         1 NMG1        0.0000
      9 H32         3.4250    0.8840    0.8550 H         1 NMG1        0.0000
     10 C4          3.8680    2.7660   -0.0700 C.2       1 NMG1        0.0000
     11 O4          3.9640    3.5190    0.8840 O.2       1 NMG1        0.0000
     12 O5          4.4890    3.1100   -1.2620 O.3       1 NMG1        0.0000
     13 H5          4.8890    3.9710   -1.1450 H         1 NMG1        0.0000
@<TRIPOS>BOND
     1   12   13 1 
     2   12   10 1 
     3    8    7 1 
     4    4    1 1 
     5    2    1 1 
     6    5    7 1 
     7    5    1 1 
     8    5    6 1 
     9    7   10 1 
    10    7    9 1 
    11    1    3 1 
    12   10   11 2 
