@<TRIPOS>MOLECULE
C:\Users\Praveer\PycharmProjects\pdb_to_mol2_converter\data\pdb\nmsm.pdb
   10     9     0     0     0
SMALL
GASTEIGER

@<TRIPOS>ATOM
      1 S1         -0.0460   -0.0160    0.0560 S.3       1 NMS1        0.0000
      2 O11        -0.1990    0.5260    1.3880 O.3       1 NMS1        0.0000
      3 O12        -0.7020    0.7360   -0.9910 O.3       1 NMS1        0.0000
      4 O13        -0.2300   -1.4490   -0.0170 O.3       1 NMS1        0.0000
      5 N2          1.6170    0.0660   -0.1870 N.3       1 NMS1        0.0000
      6 H21         1.9930   -0.5150    0.5590 H         1 NMS1        0.0000
      7 C3          2.1310    1.4590   -0.1200 C.3       1 NMS1        0.0000
      8 H31         1.9420    1.8890    0.8900 H         1 NMS1        0.0000
      9 H32         1.6260    2.0800   -0.8930 H         1 NMS1        0.0000
     10 H33         3.2230    1.4460   -0.3200 H         1 NMS1        0.0000
@<TRIPOS>BOND
     1    3    1 1 
     2    9    7 1 
     3   10    7 1 
     4    5    7 1 
     5    5    1 1 
     6    5    6 1 
     7    7    8 1 
     8    4    1 1 
     9    1    2 1 
