@<TRIPOS>MOLECULE
C:\Users\Praveer\PycharmProjects\pdb_to_mol2_converter\data\pdb\norb.pdb
   19    20     0     0     0
SMALL
GASTEIGER

@<TRIPOS>ATOM
      1 C1          1.5200    0.0080   -0.0130 C.3       1 NOR1        0.0000
      2 H1          2.0180   -0.7020   -0.6970 H         1 NOR1        0.0000
      3 C2          2.0040    1.4510   -0.1440 C.3       1 NOR1        0.0000
      4 H21         1.5590    1.9490   -1.0170 H         1 NOR1        0.0000
      5 H22         3.0970    1.4850   -0.2680 H         1 NOR1        0.0000
      6 C3          1.5620    2.0850    1.1850 C.3       1 NOR1        0.0000
      7 H31         0.8740    2.9300    1.0390 H         1 NOR1        0.0000
      8 H32         2.4210    2.4560    1.7640 H         1 NOR1        0.0000
      9 C4          0.8820    0.9250    1.9100 C.3       1 NOR1        0.0000
     10 H4          0.7930    1.0630    3.0020 H         1 NOR1        0.0000
     11 C5         -0.4440    0.6630    1.1990 C.3       1 NOR1        0.0000
     12 H51        -1.0170    1.5900    1.0550 H         1 NOR1        0.0000
     13 H52        -1.0710   -0.0240    1.7870 H         1 NOR1        0.0000
     14 C6         -0.0030    0.0300   -0.1310 C.3       1 NOR1        0.0000
     15 H61        -0.4000   -0.9890   -0.2490 H         1 NOR1        0.0000
     16 H62        -0.3320    0.6130   -1.0030 H         1 NOR1        0.0000
     17 C7          1.7170   -0.2570    1.4650 C.3       1 NOR1        0.0000
     18 H71         2.7680   -0.1840    1.7790 H         1 NOR1        0.0000
     19 H72         1.3030   -1.2230    1.7880 H         1 NOR1        0.0000
@<TRIPOS>BOND
     1    4    3 1 
     2   16   14 1 
     3    2    1 1 
     4    5    3 1 
     5   15   14 1 
     6    3    1 1 
     7    3    6 1 
     8   14    1 1 
     9   14   11 1 
    10    1   17 1 
    11    7    6 1 
    12   12   11 1 
    13    6    8 1 
    14    6    9 1 
    15   11   13 1 
    16   11    9 1 
    17   17   18 1 
    18   17   19 1 
    19   17    9 1 
    20    9   10 1 
