@<TRIPOS>MOLECULE
C:\Users\Praveer\PycharmProjects\pdb_to_mol2_converter\data\pdb\nsm.pdb
  149   148     0     0     0
SMALL
GASTEIGER

@<TRIPOS>ATOM
      1 N          21.4410    4.8100    6.7370 N.4       1 NSM1        0.0000
      2 C15        22.4920    5.7970    7.1360 C.3       1 NSM1        0.0000
      3 H15A       22.3870    6.6990    6.5410 H         1 NSM1        0.0000
      4 H15B       23.4840    5.3980    6.9700 H         1 NSM1        0.0000
      5 H15C       22.3930    6.0740    8.1770 H         1 NSM1        0.0000
      6 C14        21.5970    4.4660    5.2820 C.3       1 NSM1        0.0000
      7 H14A       22.5600    4.0490    5.0450 H         1 NSM1        0.0000
      8 H14B       21.4140    5.3400    4.6530 H         1 NSM1        0.0000
      9 H14C       20.8130    3.7700    4.9740 H         1 NSM1        0.0000
     10 C13        21.5820    3.5460    7.5300 C.3       1 NSM1        0.0000
     11 H13A       21.4600    3.7270    8.5890 H         1 NSM1        0.0000
     12 H13B       22.5520    3.0970    7.3650 H         1 NSM1        0.0000
     13 H13C       20.8290    2.8280    7.2170 H         1 NSM1        0.0000
     14 C12        20.0520    5.3960    6.9430 C.3       1 NSM1        0.0000
     15 H12A       19.8290    5.5300    7.9910 H         1 NSM1        0.0000
     16 H12B       19.3190    4.6720    6.5680 H         1 NSM1        0.0000
     17 C11        19.7320    6.7080    6.1980 C.3       1 NSM1        0.0000
     18 H11A       20.5520    7.0290    5.5170 H         1 NSM1        0.0000
     19 H11B       19.6020    7.5260    6.9420 H         1 NSM1        0.0000
     20 P          18.5080    5.5340    4.2510 P.3       1 NSM1        0.0000
     21 O13        19.6660    5.8930    3.3960 O.2       1 NSM1        0.0000
     22 O14        18.4910    4.1630    4.8020 O.3       1 NSM1        0.0000
     23 O11        17.1650    5.8790    3.4920 O.3       1 NSM1        0.0000
     24 O12        18.5120    6.5390    5.4790 O.3       1 NSM1        0.0000
     25 C1S        16.8640    7.2070    3.0450 C.3       1 NSM1        0.0000
     26 H1S        17.4620    7.9870    3.5780 H         1 NSM1        0.0000
     27 H1T        15.7860    7.3850    3.2550 H         1 NSM1        0.0000
     28 NF         18.4990    7.1540    1.2390 N.am      1 NSM1        0.0000
     29 HNF        19.0500    6.8700    2.0370 H         1 NSM1        0.0000
     30 C2S        17.1030    7.3890    1.5090 C.3       1 NSM1        0.0000
     31 H2S        16.5450    6.5670    1.0020 H         1 NSM1        0.0000
     32 C3S        16.5410    8.7330    0.9620 C.3       1 NSM1        0.0000
     33 H3S        16.8490    8.8850   -0.0930 H         1 NSM1        0.0000
     34 O3         17.0420    9.8520    1.6900 O.3       1 NSM1        0.0000
     35 HO3        17.8360    9.5220    2.1160 H         1 NSM1        0.0000
     36 C4S        15.0450    8.7540    1.0450 C.2       1 NSM1        0.0000
     37 H4S        14.6340    9.0100    2.0300 H         1 NSM1        0.0000
     38 C5S        14.2240    8.5050    0.0070 C.2       1 NSM1        0.0000
     39 H5S        14.6560    8.2660   -0.9800 H         1 NSM1        0.0000
     40 C6S        12.7220    8.5020    0.0810 C.3       1 NSM1        0.0000
     41 H6S        12.3000    9.0920   -0.7620 H         1 NSM1        0.0000
     42 H6T        12.3580    8.9750    1.0200 H         1 NSM1        0.0000
     43 C7S        12.1710    7.0660    0.0180 C.3       1 NSM1        0.0000
     44 H7S        12.5530    6.4870    0.8900 H         1 NSM1        0.0000
     45 H7T        12.5330    6.5610   -0.9070 H         1 NSM1        0.0000
     46 C8S        10.6370    7.0290    0.0320 C.3       1 NSM1        0.0000
     47 H8S        10.2560    7.5840   -0.8550 H         1 NSM1        0.0000
     48 H8T        10.2700    7.5530    0.9440 H         1 NSM1        0.0000
     49 C9S        10.0750    5.6010    0.0120 C.3       1 NSM1        0.0000
     50 H9S        10.4460    5.0510    0.9060 H         1 NSM1        0.0000
     51 H9T        10.4520    5.0710   -0.8910 H         1 NSM1        0.0000
     52 C10S        8.5410    5.5840    0.0070 C.3       1 NSM1        0.0000
     53 H10S        8.1760    6.1320   -0.8920 H         1 NSM1        0.0000
     54 H10T        8.1700    6.1260    0.9060 H         1 NSM1        0.0000
     55 C11S        7.9510    4.1670    0.0010 C.3       1 NSM1        0.0000
     56 H11S        8.3120    3.6170    0.8990 H         1 NSM1        0.0000
     57 H11T        8.3140    3.6230   -0.8990 H         1 NSM1        0.0000
     58 C12S        6.4160    4.1790   -0.0000 C.3       1 NSM1        0.0000
     59 H12S        6.0580    4.7300   -0.8980 H         1 NSM1        0.0000
     60 H12T        6.0570    4.7290    0.8990 H         1 NSM1        0.0000
     61 C13S        5.8060    2.7710   -0.0010 C.3       1 NSM1        0.0000
     62 H13S        6.1630    2.2190    0.8980 H         1 NSM1        0.0000
     63 H13T        6.1630    2.2200   -0.9000 H         1 NSM1        0.0000
     64 C14S        4.2710    2.7920   -0.0010 C.3       1 NSM1        0.0000
     65 H14S        3.9150    3.3440   -0.8990 H         1 NSM1        0.0000
     66 H14T        3.9150    3.3440    0.8980 H         1 NSM1        0.0000
     67 C15S        3.6590    1.3840   -0.0010 C.3       1 NSM1        0.0000
     68 H15S        4.0150    0.8330    0.8980 H         1 NSM1        0.0000
     69 H15T        4.0160    0.8330   -0.8990 H         1 NSM1        0.0000
     70 C16S        2.1230    1.4020   -0.0010 C.3       1 NSM1        0.0000
     71 H16S        1.7650    1.9530   -0.9000 H         1 NSM1        0.0000
     72 H16T        1.7650    1.9530    0.8980 H         1 NSM1        0.0000
     73 C17S        1.5140   -0.0060   -0.0010 C.3       1 NSM1        0.0000
     74 H17S        1.8800   -0.5550    0.8970 H         1 NSM1        0.0000
     75 H17T        1.8810   -0.5550   -0.8990 H         1 NSM1        0.0000
     76 C18S       -0.0170   -0.0090   -0.0010 C.3       1 NSM1        0.0000
     77 H18S       -0.4070    0.5110   -0.9030 H         1 NSM1        0.0000
     78 H18T       -0.4070    0.5110    0.9000 H         1 NSM1        0.0000
     79 H18U       -0.4060   -1.0500   -0.0010 H         1 NSM1        0.0000
     80 C1F        18.9480    6.8970    0.0170 C.2       1 NSM1        0.0000
     81 OF         18.2210    6.9690   -0.9700 O.2       1 NSM1        0.0000
     82 C2F        20.3530    6.4000   -0.0640 C.3       1 NSM1        0.0000
     83 H2F        20.3280    5.2900   -0.0480 H         1 NSM1        0.0000
     84 H2G        20.9140    6.7520    0.8290 H         1 NSM1        0.0000
     85 C3F        21.0730    6.8700   -1.3400 C.3       1 NSM1        0.0000
     86 H3F        21.1190    7.9800   -1.3540 H         1 NSM1        0.0000
     87 H3G        20.4930    6.5600   -2.2370 H         1 NSM1        0.0000
     88 C4F        22.4930    6.3010   -1.4390 C.3       1 NSM1        0.0000
     89 H4F        22.4330    5.1860   -1.4240 H         1 NSM1        0.0000
     90 H4G        23.0870    6.6330   -0.5560 H         1 NSM1        0.0000
     91 C5F        23.2010    6.7510   -2.7200 C.3       1 NSM1        0.0000
     92 H5F        23.2980    7.8620   -2.7300 H         1 NSM1        0.0000
     93 H5G        22.5790    6.4550   -3.5970 H         1 NSM1        0.0000
     94 C6F        24.5900    6.1240   -2.8690 C.3       1 NSM1        0.0000
     95 H6F        24.4970    5.0160   -2.8250 H         1 NSM1        0.0000
     96 H6G        25.2380    6.4370   -2.0210 H         1 NSM1        0.0000
     97 C7F        25.2590    6.5130   -4.1920 C.3       1 NSM1        0.0000
     98 H7F        25.3870    7.6170   -4.2280 H         1 NSM1        0.0000
     99 H7G        24.5910    6.2230   -5.0330 H         1 NSM1        0.0000
    100 C8F        26.6190    5.8370   -4.3820 C.3       1 NSM1        0.0000
    101 H8F        26.4870    4.7330   -4.3120 H         1 NSM1        0.0000
    102 H8G        27.3000    6.1470   -3.5570 H         1 NSM1        0.0000
    103 C9F        27.2750    6.1710   -5.7290 C.3       1 NSM1        0.0000
    104 H9F        27.4200    7.2710   -5.8080 H         1 NSM1        0.0000
    105 H9G        26.6000    5.8550   -6.5550 H         1 NSM1        0.0000
    106 C10F       28.6270    5.4610   -5.8720 C.3       1 NSM1        0.0000
    107 H10F       28.4680    4.3660   -5.7520 H         1 NSM1        0.0000
    108 H10G       29.2920    5.7960   -5.0440 H         1 NSM1        0.0000
    109 C11F       29.3390    5.7090   -7.2090 C.3       1 NSM1        0.0000
    110 H11F       29.4920    6.8020   -7.3530 H         1 NSM1        0.0000
    111 H11G       28.7020    5.3400   -8.0430 H         1 NSM1        0.0000
    112 C12F       30.6970    4.9930   -7.2410 C.3       1 NSM1        0.0000
    113 H12F       30.5330    3.9090   -7.0450 H         1 NSM1        0.0000
    114 H12G       31.3250    5.3900   -6.4120 H         1 NSM1        0.0000
    115 C13F       31.4650    5.1450   -8.5630 C.3       1 NSM1        0.0000
    116 H13F       31.6030    6.2280   -8.7810 H         1 NSM1        0.0000
    117 H13G       30.8610    4.7010   -9.3850 H         1 NSM1        0.0000
    118 C14F       32.8380    4.4520   -8.4810 C.3       1 NSM1        0.0000
    119 H14F       32.6650    3.3910   -8.1880 H         1 NSM1        0.0000
    120 H14G       33.4090    4.9260   -7.6510 H         1 NSM1        0.0000
    121 C15F       33.6480    4.5120   -9.7510 C.2       1 NSM1        0.0000
    122 H15F       33.2450    5.1400  -10.5610 H         1 NSM1        0.0000
    123 C16F       34.7970    3.8340   -9.9320 C.2       1 NSM1        0.0000
    124 H16F       35.3210    3.9180  -10.8960 H         1 NSM1        0.0000
    125 C17F       35.4120    2.9350   -8.8840 C.3       1 NSM1        0.0000
    126 H17F       34.7540    2.0440   -8.7560 H         1 NSM1        0.0000
    127 H17G       35.4100    3.4520   -7.8960 H         1 NSM1        0.0000
    128 C18F       36.8530    2.4000   -9.0980 C.3       1 NSM1        0.0000
    129 H18F       36.8600    1.3210   -8.8150 H         1 NSM1        0.0000
    130 H18G       37.5370    2.9200   -8.3890 H         1 NSM1        0.0000
    131 C19F       37.4460    2.5330  -10.5100 C.3       1 NSM1        0.0000
    132 H19F       37.5600    3.6120  -10.7570 H         1 NSM1        0.0000
    133 H19G       36.7560    2.0760  -11.2530 H         1 NSM1        0.0000
    134 C20F       38.8210    1.8560  -10.6220 C.3       1 NSM1        0.0000
    135 H20F       38.7080    0.7700  -10.4070 H         1 NSM1        0.0000
    136 H20G       39.4990    2.2830   -9.8480 H         1 NSM1        0.0000
    137 C21F       39.4700    2.0300  -12.0010 C.3       1 NSM1        0.0000
    138 H21F       39.5980    3.1160  -12.2110 H         1 NSM1        0.0000
    139 H21G       38.7930    1.6120  -12.7800 H         1 NSM1        0.0000
    140 C22F       40.8350    1.3350  -12.0910 C.3       1 NSM1        0.0000
    141 H22F       40.7040    0.2500  -11.8770 H         1 NSM1        0.0000
    142 H22G       41.5080    1.7530  -11.3090 H         1 NSM1        0.0000
    143 C23F       41.5050    1.4940  -13.4620 C.3       1 NSM1        0.0000
    144 H23F       41.6350    2.5800  -13.6740 H         1 NSM1        0.0000
    145 H23G       40.8270    1.0800  -14.2430 H         1 NSM1        0.0000
    146 C24F       42.8650    0.7960  -13.5510 C.3       1 NSM1        0.0000
    147 H24F       42.7540   -0.2940  -13.3640 H         1 NSM1        0.0000
    148 H24G       43.5650    1.2110  -12.7940 H         1 NSM1        0.0000
    149 H24H       43.3120    0.9360  -14.5590 H         1 NSM1        0.0000
@<TRIPOS>BOND
     1  149  146 1 
     2  145  143 1 
     3  144  143 1 
     4  146  143 1 
     5  146  147 1 
     6  146  148 1 
     7  143  140 1 
     8  139  137 1 
     9  138  137 1 
    10  140  137 1 
    11  140  141 1 
    12  140  142 1 
    13  137  134 1 
    14  133  131 1 
    15  124  123 1 
    16  132  131 1 
    17  134  131 1 
    18  134  135 1 
    19  134  136 1 
    20  122  121 1 
    21  131  128 1 
    22  123  121 2 
    23  123  125 1 
    24  121  118 1 
    25  117  115 1 
    26  128  125 1 
    27  128  129 1 
    28  128  130 1 
    29  125  126 1 
    30  125  127 1 
    31  116  115 1 
    32  115  118 1 
    33  115  112 1 
    34  118  119 1 
    35  118  120 1 
    36  111  109 1 
    37  110  109 1 
    38  112  109 1 
    39  112  113 1 
    40  112  114 1 
    41  109  106 1 
    42  105  103 1 
    43  106  107 1 
    44  106  103 1 
    45  106  108 1 
    46  104  103 1 
    47  103  100 1 
    48   99   97 1 
    49  100  101 1 
    50  100   97 1 
    51  100  102 1 
    52   98   97 1 
    53   97   94 1 
    54   93   91 1 
    55   94   95 1 
    56   94   91 1 
    57   94   96 1 
    58   92   91 1 
    59   91   88 1 
    60   87   85 1 
    61   88   89 1 
    62   88   85 1 
    63   88   90 1 
    64   86   85 1 
    65   85   82 1 
    66   39   38 1 
    67   81   80 2 
    68   45   43 1 
    69   77   76 1 
    70   71   70 1 
    71   63   61 1 
    72   57   55 1 
    73   75   73 1 
    74   65   64 1 
    75   69   67 1 
    76   59   58 1 
    77   53   52 1 
    78   51   49 1 
    79   47   46 1 
    80   41   40 1 
    81   33   32 1 
    82   82   83 1 
    83   82   80 1 
    84   82   84 1 
    85   76   79 1 
    86   76   73 1 
    87   76   78 1 
    88   73   70 1 
    89   73   74 1 
    90   70   67 1 
    91   70   72 1 
    92   67   64 1 
    93   67   68 1 
    94   64   61 1 
    95   64   66 1 
    96   61   58 1 
    97   61   62 1 
    98   58   55 1 
    99   58   60 1 
   100   55   52 1 
   101   55   56 1 
   102   52   49 1 
   103   52   54 1 
   104   38   40 1 
   105   38   36 2 
   106   49   46 1 
   107   49   50 1 
   108   80   28 am
   109   43   46 1 
   110   43   40 1 
   111   43   44 1 
   112   46   48 1 
   113   40   42 1 
   114   32   36 1 
   115   32   30 1 
   116   32   34 1 
   117   31   30 1 
   118   36   37 1 
   119   28   30 1 
   120   28   29 1 
   121   30   25 1 
   122   34   35 1 
   123   25   27 1 
   124   25   23 1 
   125   25   26 1 
   126   21   20 2 
   127   23   20 1 
   128   20   22 1 
   129   20   24 1 
   130    8    6 1 
   131    9    6 1 
   132    7    6 1 
   133    6    1 1 
   134   24   17 1 
   135   18   17 1 
   136   17   19 1 
   137   17   14 1 
   138    3    2 1 
   139   16   14 1 
   140    1   14 1 
   141    1    2 1 
   142    1   10 1 
   143   14   15 1 
   144    4    2 1 
   145    2    5 1 
   146   13   10 1 
   147   12   10 1 
   148   10   11 1 
