@<TRIPOS>MOLECULE
C:\Users\Praveer\PycharmProjects\pdb_to_mol2_converter\data\pdb\nthy.pdb
   38    39     0     0     0
SMALL
GASTEIGER

@<TRIPOS>ATOM
      1 O4'         1.5190    0.3240   -0.2670 O.3       1 NTH1        0.0000
      2 C1'         2.0780    1.6040    0.0610 C.3       1 NTH1        0.0000
      3 H12'        2.8300    1.4080    0.8470 H         1 NTH1        0.0000
      4 C4'         0.1460    0.2240    0.1500 C.3       1 NTH1        0.0000
      5 H42'        0.0560   -0.6990    0.7460 H         1 NTH1        0.0000
      6 N1          2.7200    2.1640   -1.1560 N.ar      1 NTH1        0.0000
      7 C6          2.9420    1.3630   -2.2560 C.ar      1 NTH1        0.0000
      8 H6          2.5540    0.3420   -2.2030 H         1 NTH1        0.0000
      9 C2          3.2370    3.4690   -1.1440 C.ar      1 NTH1        0.0000
     10 O2          3.1910    4.2050   -0.1630 O.2       1 NTH1        0.0000
     11 N3          3.8370    3.9030   -2.2950 N.ar      1 NTH1        0.0000
     12 H3          4.1950    4.8370   -2.2910 H         1 NTH1        0.0000
     13 C4          4.0570    3.1570   -3.4270 C.ar      1 NTH1        0.0000
     14 O4          4.6490    3.6850   -4.3650 O.2       1 NTH1        0.0000
     15 C5          3.5670    1.8020   -3.3980 C.ar      1 NTH1        0.0000
     16 C5M         3.8180    0.9230   -4.5830 C.3       1 NTH1        0.0000
     17 H51         3.3660   -0.0860   -4.4530 H         1 NTH1        0.0000
     18 H52         4.9110    0.7870   -4.7450 H         1 NTH1        0.0000
     19 H53         3.3910    1.3730   -5.5070 H         1 NTH1        0.0000
     20 C2'         0.9390    2.4420    0.6480 C.3       1 NTH1        0.0000
     21 H21'        0.5320    3.1430   -0.0970 H         1 NTH1        0.0000
     22 H22'        1.2760    3.0640    1.4900 H         1 NTH1        0.0000
     23 C3'        -0.1300    1.4360    1.0410 C.3       1 NTH1        0.0000
     24 H31'       -1.1460    1.8290    0.8400 H         1 NTH1        0.0000
     25 O3'         0.0260    1.0710    2.4060 O.3       1 NTH1        0.0000
     26 P          -0.6860    1.9410    3.5710 P.3       1 NTH1        0.0000
     27 O1P         0.1600    3.1650    3.8190 O.3       1 NTH1        0.0000
     28 O2P        -2.1430    2.0820    3.2010 O.2       1 NTH1        0.0000
     29 O3P        -0.5960    0.9760    4.8870 O.3       1 NTH1        0.0000
     30 C3T        -0.4060    1.5670    6.1690 C.3       1 NTH1        0.0000
     31 H3T1       -1.3030    2.1550    6.4680 H         1 NTH1        0.0000
     32 H3T2        0.4880    2.2330    6.1840 H         1 NTH1        0.0000
     33 H3T3       -0.2440    0.7680    6.9240 H         1 NTH1        0.0000
     34 C5'        -0.8080    0.1110   -1.0600 C.3       1 NTH1        0.0000
     35 H51'       -1.8560    0.2950   -0.7360 H         1 NTH1        0.0000
     36 H52'       -0.7430   -0.9180   -1.4780 H         1 NTH1        0.0000
     37 H5T         0.3040    1.5110   -1.6960 H         1 NTH1        0.0000
     38 O5'        -0.4440    1.0360   -2.0850 O.3       1 NTH1        0.0000
@<TRIPOS>BOND
     1   19   16 1 
     2   18   16 1 
     3   16   17 1 
     4   16   15 1 
     5   14   13 2 
     6   13   15 ar
     7   13   11 ar
     8   15    7 ar
     9   11   12 1 
    10   11    9 ar
    11    7    8 1 
    12    7    6 ar
    13   38   37 1 
    14   38   34 1 
    15   36   34 1 
    16    6    9 ar
    17    6    2 1 
    18    9   10 2 
    19   34   35 1 
    20   34    4 1 
    21    1    2 1 
    22    1    4 1 
    23   21   20 1 
    24    2   20 1 
    25    2    3 1 
    26    4    5 1 
    27    4   23 1 
    28   20   23 1 
    29   20   22 1 
    30   24   23 1 
    31   23   25 1 
    32   25   26 1 
    33   28   26 2 
    34   26   27 1 
    35   26   29 1 
    36   29   30 1 
    37   30   32 1 
    38   30   31 1 
    39   30   33 1 
