@<TRIPOS>MOLECULE
C:\Users\Praveer\PycharmProjects\pdb_to_mol2_converter\data\pdb\nucl.pdb
   32    33     0     0     0
SMALL
GASTEIGER

@<TRIPOS>ATOM
      1 O4'         1.3110    0.1990   -0.6560 O.3       1 NUC1        0.0000
      2 C1'         1.9000    1.4100   -0.1860 C.3       1 NUC1        0.0000
      3 H12'        2.6320    1.1310    0.6030 H         1 NUC1        0.0000
      4 C4'         0.0020    0.0070   -0.0390 C.3       1 NUC1        0.0000
      5 H42'        0.0210   -0.9320    0.5530 H         1 NUC1        0.0000
      6 CG          3.7940    1.5790   -1.8380 C.ar      1 NUC1        0.0000
      7 HG          4.4840    0.9420   -1.3030 H         1 NUC1        0.0000
      8 CD2         3.8580    2.0640   -3.1050 C.ar      1 NUC1        0.0000
      9 HD2         4.6190    1.9290   -3.8630 H         1 NUC1        0.0000
     10 ND1         2.6000    2.0270   -1.3120 N.ar      1 NUC1        0.0000
     11 CE1         2.0170    2.7730   -2.2840 C.ar      1 NUC1        0.0000
     12 HE1         1.0450    3.2480   -2.1470 H         1 NUC1        0.0000
     13 NE2         2.7370    2.8210   -3.3890 N.ar      1 NUC1        0.0000
     14 C2'         0.7630    2.2480    0.3980 C.3       1 NUC1        0.0000
     15 H21'        0.2320    2.8120   -0.3990 H         1 NUC1        0.0000
     16 H22'        1.1230    2.9590    1.1680 H         1 NUC1        0.0000
     17 C3'        -0.1770    1.1850    0.9370 C.3       1 NUC1        0.0000
     18 H31'       -1.2370    1.5270    0.8580 H         1 NUC1        0.0000
     19 O3'         0.1590    0.8270    2.2810 O.3       1 NUC1        0.0000
     20 P          -0.3560    1.7550    3.4560 P.3       1 NUC1        0.0000
     21 O1P         0.5530    2.9140    3.6000 O.3       1 NUC1        0.0000
     22 O2P        -1.7930    2.0320    3.2410 O.2       1 NUC1        0.0000
     23 O3P        -0.1910    0.7920    4.7110 O.3       1 NUC1        0.0000
     24 C3T        -0.2830    1.3340    6.0380 C.3       1 NUC1        0.0000
     25 H3T1       -1.2960    1.7580    6.2260 H         1 NUC1        0.0000
     26 H3T2        0.4850    2.1260    6.1990 H         1 NUC1        0.0000
     27 H3T3       -0.1020    0.5220    6.7740 H         1 NUC1        0.0000
     28 C5'        -1.0920   -0.0690   -1.1170 C.3       1 NUC1        0.0000
     29 H51'       -2.0940    0.0420   -0.6490 H         1 NUC1        0.0000
     30 H52'       -1.0630   -1.0810   -1.5780 H         1 NUC1        0.0000
     31 H5T         0.0230    0.9030   -2.3250 H         1 NUC1        0.0000
     32 O5'        -0.9300    0.9060   -2.1530 O.3       1 NUC1        0.0000
@<TRIPOS>BOND
     1    9    8 1 
     2   13    8 ar
     3   13   11 ar
     4    8    6 ar
     5   31   32 1 
     6   11   12 1 
     7   11   10 ar
     8   32   28 1 
     9    6   10 ar
    10    6    7 1 
    11   30   28 1 
    12   10    2 1 
    13   28   29 1 
    14   28    4 1 
    15    1    2 1 
    16    1    4 1 
    17   15   14 1 
    18    2   14 1 
    19    2    3 1 
    20    4    5 1 
    21    4   17 1 
    22   14   17 1 
    23   14   16 1 
    24   18   17 1 
    25   17   19 1 
    26   19   20 1 
    27   22   20 2 
    28   20   21 1 
    29   20   23 1 
    30   23   24 1 
    31   24   26 1 
    32   24   25 1 
    33   24   27 1 
