@<TRIPOS>MOLECULE
C:\Users\Praveer\PycharmProjects\pdb_to_mol2_converter\data\pdb\nusa.pdb
   31    33     0     0     0
SMALL
GASTEIGER

@<TRIPOS>ATOM
      1 O4'        -0.4210    1.3070   -0.7460 O.3       1 NUS1        0.0000
      2 C4'         0.6140    2.3070   -0.6720 C.3       1 NUS1        0.0000
      3 H42'        0.2410    3.1010   -0.0050 H         1 NUS1        0.0000
      4 C1'        -0.0170    0.1150   -0.0730 C.3       1 NUS1        0.0000
      5 H12'       -0.4140    0.2010    0.9540 H         1 NUS1        0.0000
      6 C2'         1.5120    0.1420   -0.0490 C.3       1 NUS1        0.0000
      7 H21'        1.9590   -0.3160   -0.9440 H         1 NUS1        0.0000
      8 H22'        1.9270   -0.4080    0.8080 H         1 NUS1        0.0000
      9 C5         -1.8900   -2.7180   -1.3910 C.ar      1 NUS1        0.0000
     10 N7         -0.9110   -2.6020   -2.3800 N.ar      1 NUS1        0.0000
     11 C8         -0.1790   -1.5740   -1.9720 C.ar      1 NUS1        0.0000
     12 H8          0.6910   -1.1810   -2.5040 H         1 NUS1        0.0000
     13 N9         -0.6080   -1.0250   -0.7830 N.ar      1 NUS1        0.0000
     14 N1         -3.7730   -3.4470   -0.1300 N.2       1 NUS1        0.0000
     15 C2         -3.5170   -2.4550    0.7670 C.2       1 NUS1        0.0000
     16 H2         -4.1870   -2.3680    1.6270 H         1 NUS1        0.0000
     17 N3         -2.4840   -1.5740    0.6850 N.pl3     1 NUS1        0.0000
     18 C4         -1.7170   -1.7430   -0.4030 C.ar      1 NUS1        0.0000
     19 C6         -2.9750   -3.6050   -1.2190 C.3       1 NUS1        0.0000
     20 N6         -3.2760   -4.6100   -2.0610 N.3       1 NUS1        0.0000
     21 H61        -2.7330   -4.7900   -2.8750 H         1 NUS1        0.0000
     22 H62        -4.0660   -5.1750   -1.8330 H         1 NUS1        0.0000
     23 H31'        2.7580    1.8410   -0.6200 H         1 NUS1        0.0000
     24 C3'         1.8440    1.6250   -0.0440 C.3       1 NUS1        0.0000
     25 O3'         2.0740    2.0200    1.3040 O.3       1 NUS1        0.0000
     26 H32'        1.3220    1.7580    1.8450 H         1 NUS1        0.0000
     27 C5'         0.8870    2.9390   -2.0540 C.3       1 NUS1        0.0000
     28 H51'        1.8180    3.5480   -2.0190 H         1 NUS1        0.0000
     29 H52'        0.0470    3.6210   -2.3130 H         1 NUS1        0.0000
     30 O5'         1.0000    1.9470   -3.0740 O.3       1 NUS1        0.0000
     31 H5T         0.1270    1.5420   -3.1310 H         1 NUS1        0.0000
@<TRIPOS>BOND
     1   31   30 1 
     2   30   27 1 
     3   21   20 1 
     4   12   11 1 
     5   10   11 ar
     6   10    9 ar
     7   29   27 1 
     8   20   22 1 
     9   20   19 1 
    10   27   28 1 
    11   27    2 1 
    12   11   13 ar
    13    9   19 1 
    14    9   18 ar
    15   19   14 1 
    16    7    6 1 
    17   13   18 ar
    18   13    4 1 
    19    1    2 1 
    20    1    4 1 
    21    2   24 1 
    22    2    3 1 
    23   23   24 1 
    24   18   17 1 
    25   14   15 2 
    26    4    6 1 
    27    4    5 1 
    28    6   24 1 
    29    6    8 1 
    30   24   25 1 
    31   17   15 1 
    32   15   16 1 
    33   25   26 1 
