@<TRIPOS>MOLECULE
C:\Users\Praveer\PycharmProjects\pdb_to_mol2_converter\data\pdb\nusc.pdb
   29    30     0     0     0
SMALL
GASTEIGER

@<TRIPOS>ATOM
      1 O4'        -0.4120    1.2960   -0.7500 O.3       1 NUS1        0.0000
      2 C4'         0.6080    2.3100   -0.6700 C.3       1 NUS1        0.0000
      3 H42'        0.1990    3.1270   -0.0530 H         1 NUS1        0.0000
      4 C1'        -0.0050    0.1070   -0.0660 C.3       1 NUS1        0.0000
      5 H12'       -0.4420    0.1810    0.9460 H         1 NUS1        0.0000
      6 C2'         1.5220    0.1850    0.0470 C.3       1 NUS1        0.0000
      7 H21'        2.0380   -0.2870   -0.8010 H         1 NUS1        0.0000
      8 H22'        1.8920   -0.3330    0.9440 H         1 NUS1        0.0000
      9 N1         -0.5220   -1.0500   -0.8270 N.ar      1 NUS1        0.0000
     10 C6          0.0250   -1.3610   -2.0440 C.ar      1 NUS1        0.0000
     11 H6          0.8380   -0.7280   -2.4070 H         1 NUS1        0.0000
     12 C2         -1.6260   -1.8070   -0.3500 C.ar      1 NUS1        0.0000
     13 O2         -2.1450   -1.4950    0.7190 O.2       1 NUS1        0.0000
     14 N3         -2.0740   -2.8660   -1.0780 N.ar      1 NUS1        0.0000
     15 C4         -1.5110   -3.1870   -2.2490 C.ar      1 NUS1        0.0000
     16 N4         -1.9770   -4.2410   -2.9210 N.pl3     1 NUS1        0.0000
     17 H41        -2.7390   -4.7260   -2.4990 H         1 NUS1        0.0000
     18 H42        -1.6010   -4.5480   -3.7890 H         1 NUS1        0.0000
     19 C5         -0.4280   -2.4220   -2.7780 C.ar      1 NUS1        0.0000
     20 H5          0.0280   -2.6680   -3.7360 H         1 NUS1        0.0000
     21 H31'        2.7590    1.8900   -0.5080 H         1 NUS1        0.0000
     22 C3'         1.8200    1.6730    0.0280 C.3       1 NUS1        0.0000
     23 O3'         1.9750    2.1080    1.3740 O.3       1 NUS1        0.0000
     24 H32'        1.2190    1.8090    1.8890 H         1 NUS1        0.0000
     25 C5'         0.9260    2.8950   -2.0610 C.3       1 NUS1        0.0000
     26 H51'        1.8780    3.4690   -2.0190 H         1 NUS1        0.0000
     27 H52'        0.1100    3.5920   -2.3600 H         1 NUS1        0.0000
     28 O5'         1.0260    1.8640   -3.0430 O.3       1 NUS1        0.0000
     29 H5T         0.1420    1.4780   -3.0670 H         1 NUS1        0.0000
@<TRIPOS>BOND
     1   18   16 1 
     2   20   19 1 
     3   29   28 1 
     4   28   25 1 
     5   16   17 1 
     6   16   15 1 
     7   19   15 ar
     8   19   10 ar
     9   11   10 1 
    10   27   25 1 
    11   15   14 ar
    12   25   26 1 
    13   25    2 1 
    14   10    9 ar
    15   14   12 ar
    16    9   12 ar
    17    9    4 1 
    18    7    6 1 
    19    1    2 1 
    20    1    4 1 
    21    2    3 1 
    22    2   22 1 
    23   21   22 1 
    24   12   13 2 
    25    4    6 1 
    26    4    5 1 
    27   22    6 1 
    28   22   23 1 
    29    6    8 1 
    30   23   24 1 
