@<TRIPOS>MOLECULE
C:\Users\Praveer\PycharmProjects\pdb_to_mol2_converter\data\pdb\nusg.pdb
   32    34     0     0     0
SMALL
GASTEIGER

@<TRIPOS>ATOM
      1 O4'        -0.4340    1.3240   -0.7230 O.3       1 NUS1        0.0000
      2 C4'         0.6130    2.3120   -0.6650 C.3       1 NUS1        0.0000
      3 H42'        0.2560    3.1170   -0.0010 H         1 NUS1        0.0000
      4 C1'        -0.0320    0.1250   -0.0560 C.3       1 NUS1        0.0000
      5 H12'       -0.4210    0.2080    0.9730 H         1 NUS1        0.0000
      6 C2'         1.4970    0.1400   -0.0430 C.3       1 NUS1        0.0000
      7 H21'        1.9290   -0.3240   -0.9430 H         1 NUS1        0.0000
      8 H22'        1.9120   -0.4150    0.8110 H         1 NUS1        0.0000
      9 N9         -0.6380   -1.0170   -0.7540 N.ar      1 NUS1        0.0000
     10 C4         -1.7520   -1.7230   -0.3660 C.ar      1 NUS1        0.0000
     11 N3         -2.5230   -1.5380    0.7230 N.ar      1 NUS1        0.0000
     12 C2         -3.5550   -2.3820    0.8350 C.ar      1 NUS1        0.0000
     13 N1         -3.7850   -3.3770   -0.0860 N.ar      1 NUS1        0.0000
     14 H1         -4.5630   -3.9880    0.0550 H         1 NUS1        0.0000
     15 N2         -4.4080   -2.2920    1.8470 N.pl3     1 NUS1        0.0000
     16 H21        -5.1910   -2.8910    1.9570 H         1 NUS1        0.0000
     17 H22        -4.2360   -1.5600    2.5010 H         1 NUS1        0.0000
     18 C6         -3.0230   -3.6230   -1.2120 C.ar      1 NUS1        0.0000
     19 O6         -3.3690   -4.5600   -1.9350 O.2       1 NUS1        0.0000
     20 C5         -1.9380   -2.7190   -1.3460 C.ar      1 NUS1        0.0000
     21 N7         -0.9580   -2.6120   -2.3230 N.ar      1 NUS1        0.0000
     22 C8         -0.2150   -1.5870   -1.9330 C.ar      1 NUS1        0.0000
     23 H8          0.6560   -1.2120   -2.4740 H         1 NUS1        0.0000
     24 H31'        2.7560    1.8220   -0.6270 H         1 NUS1        0.0000
     25 C3'         1.8420    1.6200   -0.0470 C.3       1 NUS1        0.0000
     26 O3'         2.0820    2.0160    1.3000 O.3       1 NUS1        0.0000
     27 H32'        1.3350    1.7480    1.8430 H         1 NUS1        0.0000
     28 C5'         0.8710    2.9390   -2.0510 C.3       1 NUS1        0.0000
     29 H51'        1.7970    3.5550   -2.0190 H         1 NUS1        0.0000
     30 H52'        0.0210    3.6090   -2.3090 H         1 NUS1        0.0000
     31 O5'         0.9940    1.9430   -3.0650 O.3       1 NUS1        0.0000
     32 H5T         0.1350    1.5050   -3.0960 H         1 NUS1        0.0000
@<TRIPOS>BOND
     1   32   31 1 
     2   31   28 1 
     3   23   22 1 
     4   21   22 ar
     5   21   20 ar
     6   30   28 1 
     7   28   29 1 
     8   28    2 1 
     9   19   18 2 
    10   22    9 ar
    11   20   18 ar
    12   20   10 ar
    13   18   13 ar
    14    7    6 1 
    15    9   10 ar
    16    9    4 1 
    17    1    2 1 
    18    1    4 1 
    19    2   25 1 
    20    2    3 1 
    21   24   25 1 
    22   10   11 ar
    23   13   14 1 
    24   13   12 ar
    25    4    6 1 
    26    4    5 1 
    27   25    6 1 
    28   25   26 1 
    29    6    8 1 
    30   11   12 ar
    31   12   15 1 
    32   26   27 1 
    33   15   16 1 
    34   15   17 1 
