@<TRIPOS>MOLECULE
C:\Users\Praveer\PycharmProjects\pdb_to_mol2_converter\data\pdb\nust.pdb
   31    32     0     0     0
SMALL
GASTEIGER

@<TRIPOS>ATOM
      1 O4'        -0.4090    1.2800   -0.7480 O.3       1 NUS1        0.0000
      2 C4'         0.5970    2.3080   -0.6710 C.3       1 NUS1        0.0000
      3 H42'        0.1690    3.1310   -0.0740 H         1 NUS1        0.0000
      4 C1'         0.0010    0.1100   -0.0410 C.3       1 NUS1        0.0000
      5 H12'       -0.4590    0.1890    0.9610 H         1 NUS1        0.0000
      6 C2'         1.5210    0.2050    0.1030 C.3       1 NUS1        0.0000
      7 H21'        2.0630   -0.2870   -0.7160 H         1 NUS1        0.0000
      8 H22'        1.8750   -0.2820    1.0240 H         1 NUS1        0.0000
      9 N1         -0.4880   -1.0520   -0.8030 N.ar      1 NUS1        0.0000
     10 C6          0.1140   -1.4010   -1.9870 C.ar      1 NUS1        0.0000
     11 H6          0.9490   -0.7800   -2.3190 H         1 NUS1        0.0000
     12 C2         -1.6250   -1.7510   -0.3710 C.ar      1 NUS1        0.0000
     13 O2         -2.2450   -1.4550    0.6480 O.2       1 NUS1        0.0000
     14 N3         -2.0270   -2.8070   -1.1420 N.ar      1 NUS1        0.0000
     15 H3         -2.8370   -3.3110   -0.8400 H         1 NUS1        0.0000
     16 C4         -1.4360   -3.2300   -2.3070 C.ar      1 NUS1        0.0000
     17 O4         -1.9210   -4.2000   -2.8850 O.2       1 NUS1        0.0000
     18 C5         -0.2810   -2.4820   -2.7400 C.ar      1 NUS1        0.0000
     19 C5M         0.3850   -2.8730   -4.0210 C.3       1 NUS1        0.0000
     20 H51         1.3130   -2.2870   -4.1990 H         1 NUS1        0.0000
     21 H52        -0.2990   -2.7100   -4.8850 H         1 NUS1        0.0000
     22 H53         0.6620   -3.9520   -4.0050 H         1 NUS1        0.0000
     23 H31'        2.7500    1.9090   -0.4780 H         1 NUS1        0.0000
     24 C3'         1.8080    1.6950    0.0510 C.3       1 NUS1        0.0000
     25 O3'         1.9470    2.1600    1.3890 O.3       1 NUS1        0.0000
     26 H32'        1.1900    1.8610    1.9000 H         1 NUS1        0.0000
     27 C5'         0.9200    2.8700   -2.0700 C.3       1 NUS1        0.0000
     28 H51'        1.8600    3.4650   -2.0370 H         1 NUS1        0.0000
     29 H52'        0.0920    3.5460   -2.3820 H         1 NUS1        0.0000
     30 O5'         1.0330    1.8240   -3.0340 O.3       1 NUS1        0.0000
     31 H5T         0.1680    1.3960   -3.0080 H         1 NUS1        0.0000
@<TRIPOS>BOND
     1   21   19 1 
     2   20   19 1 
     3   19   22 1 
     4   19   18 1 
     5   30   31 1 
     6   30   27 1 
     7   17   16 2 
     8   18   16 ar
     9   18   10 ar
    10   29   27 1 
    11   11   10 1 
    12   16   14 ar
    13   27   28 1 
    14   27    2 1 
    15   10    9 ar
    16   14   15 1 
    17   14   12 ar
    18    9   12 ar
    19    9    4 1 
    20    1    2 1 
    21    1    4 1 
    22    7    6 1 
    23    2    3 1 
    24    2   24 1 
    25   23   24 1 
    26   12   13 2 
    27    4    6 1 
    28    4    5 1 
    29   24    6 1 
    30   24   25 1 
    31    6    8 1 
    32   25   26 1 
