@<TRIPOS>MOLECULE
C:\Users\Praveer\PycharmProjects\pdb_to_mol2_converter\data\pdb\nusu.pdb
   28    29     0     0     0
SMALL
GASTEIGER

@<TRIPOS>ATOM
      1 O4'        -0.4170    1.3250   -0.7430 O.3       1 NUS1        0.0000
      2 C4'         0.6250    2.3160   -0.6770 C.3       1 NUS1        0.0000
      3 H42'        0.2500    3.1340   -0.0400 H         1 NUS1        0.0000
      4 C1'        -0.0230    0.1310   -0.0700 C.3       1 NUS1        0.0000
      5 H12'       -0.4190    0.2230    0.9580 H         1 NUS1        0.0000
      6 C2'         1.5060    0.1600   -0.0160 C.3       1 NUS1        0.0000
      7 H21'        1.9810   -0.3140   -0.8840 H         1 NUS1        0.0000
      8 H22'        1.8940   -0.3780    0.8610 H         1 NUS1        0.0000
      9 N1         -0.6120   -0.9960   -0.8120 N.ar      1 NUS1        0.0000
     10 C6         -0.0920   -1.3750   -2.0250 C.ar      1 NUS1        0.0000
     11 H6          0.7670   -0.8130   -2.3960 H         1 NUS1        0.0000
     12 C2         -1.7670   -1.6280   -0.3280 C.ar      1 NUS1        0.0000
     13 O2         -2.3200   -1.3000    0.7190 O.2       1 NUS1        0.0000
     14 N3         -2.2690   -2.6540   -1.0780 N.ar      1 NUS1        0.0000
     15 H3         -3.0850   -3.1160   -0.7300 H         1 NUS1        0.0000
     16 C4         -1.7560   -3.1070   -2.2670 C.ar      1 NUS1        0.0000
     17 O4         -2.3080   -4.0520   -2.8200 O.2       1 NUS1        0.0000
     18 C5         -0.6040   -2.4150   -2.7580 C.ar      1 NUS1        0.0000
     19 H5         -0.1480   -2.7040   -3.7020 H         1 NUS1        0.0000
     20 H31'        2.7690    1.8490   -0.5820 H         1 NUS1        0.0000
     21 C3'         1.8420    1.6420   -0.0230 C.3       1 NUS1        0.0000
     22 O3'         2.0470    2.0510    1.3240 O.3       1 NUS1        0.0000
     23 H32'        1.2950    1.7640    1.8510 H         1 NUS1        0.0000
     24 C5'         0.9110    2.8980   -2.0750 C.3       1 NUS1        0.0000
     25 H51'        1.8380    3.5130   -2.0520 H         1 NUS1        0.0000
     26 H52'        0.0630    3.5570   -2.3680 H         1 NUS1        0.0000
     27 O5'         1.0340    1.8610   -3.0480 O.3       1 NUS1        0.0000
     28 H5T         0.1680    1.4370   -3.0440 H         1 NUS1        0.0000
@<TRIPOS>BOND
     1   19   18 1 
     2   27   28 1 
     3   27   24 1 
     4   17   16 2 
     5   18   16 ar
     6   18   10 ar
     7   11   10 1 
     8   26   24 1 
     9   16   14 ar
    10   24   25 1 
    11   24    2 1 
    12   10    9 ar
    13   14   15 1 
    14   14   12 ar
    15    7    6 1 
    16    9   12 ar
    17    9    4 1 
    18    1    2 1 
    19    1    4 1 
    20    2    3 1 
    21    2   21 1 
    22   20   21 1 
    23   12   13 2 
    24    4    6 1 
    25    4    5 1 
    26   21    6 1 
    27   21   22 1 
    28    6    8 1 
    29   22   23 1 
