@<TRIPOS>MOLECULE
C:\Users\Praveer\PycharmProjects\pdb_to_mol2_converter\data\pdb\nzad.pdb
   22    22     0     0     0
SMALL
GASTEIGER

@<TRIPOS>ATOM
      1 C1          1.4530    2.2400    0.0990 C.ar      1 NZA1        0.0000
      2 C2          0.0750    2.3960   -0.1230 C.ar      1 NZA1        0.0000
      3 C3         -0.7630    1.2740   -0.1810 C.ar      1 NZA1        0.0000
      4 C4         -0.2260   -0.0100   -0.0210 C.ar      1 NZA1        0.0000
      5 C5          1.1480   -0.1730    0.2030 C.ar      1 NZA1        0.0000
      6 C6          1.9850    0.9490    0.2600 C.ar      1 NZA1        0.0000
      7 H2         -0.3400    3.3840   -0.2530 H         1 NZA1        0.0000
      8 H3         -1.8230    1.3970   -0.3530 H         1 NZA1        0.0000
      9 H4         -0.8700   -0.8760   -0.0730 H         1 NZA1        0.0000
     10 H5          1.5630   -1.1630    0.3280 H         1 NZA1        0.0000
     11 H6          3.0450    0.8230    0.4210 H         1 NZA1        0.0000
     12 C7          2.3690    3.4310    0.0960 C.3       1 NZA1        0.0000
     13 H71         3.1600    3.2430    0.8620 H         1 NZA1        0.0000
     14 H72         1.7920    4.3170    0.4470 H         1 NZA1        0.0000
     15 N8          2.9330    3.7060   -1.2050 N.am      1 NZA1        0.0000
     16 H8          2.3370    3.5530   -1.9850 H         1 NZA1        0.0000
     17 C9          4.2110    4.0500   -1.4080 C.2       1 NZA1        0.0000
     18 O9          5.0070    4.2180   -0.4950 O.2       1 NZA1        0.0000
     19 C10         4.6340    4.2160   -2.8200 C.3       1 NZA1        0.0000
     20 H101        4.5920    5.2900   -3.1010 H         1 NZA1        0.0000
     21 H102        3.9810    3.6330   -3.5020 H         1 NZA1        0.0000
     22 H103        5.6800    3.8580   -2.9300 H         1 NZA1        0.0000
@<TRIPOS>BOND
     1   21   19 1 
     2   20   19 1 
     3   22   19 1 
     4   19   17 1 
     5   16   15 1 
     6   17   15 am
     7   17   18 2 
     8   15   12 1 
     9    8    3 1 
    10    7    2 1 
    11    3    2 ar
    12    3    4 ar
    13    2    1 ar
    14    9    4 1 
    15    4    5 ar
    16   12    1 1 
    17   12   14 1 
    18   12   13 1 
    19    1    6 ar
    20    5    6 ar
    21    5   10 1 
    22    6   11 1 
