@<TRIPOS>MOLECULE
C:\Users\Praveer\PycharmProjects\pdb_to_mol2_converter\data\pdb\obtz.pdb
   20    21     0     0     0
SMALL
GASTEIGER

@<TRIPOS>ATOM
      1 S1          2.3650    1.5680   -0.0640 S.O2      1 OBT1        0.0000
      2 N2          1.2190    2.6240   -0.5650 N.3       1 OBT1        0.0000
      3 H2          1.0150    2.4210   -1.5390 H         1 OBT1        0.0000
      4 O11         2.6770    1.7540    1.3270 O.2       1 OBT1        0.0000
      5 O12         3.3610    1.4020   -1.0870 O.2       1 OBT1        0.0000
      6 C3         -0.0260    2.5230    0.1870 C.3       1 OBT1        0.0000
      7 H31        -0.6710    3.4050   -0.0460 H         1 OBT1        0.0000
      8 H32         0.1560    2.5360    1.2880 H         1 OBT1        0.0000
      9 N4         -0.7130    1.2850   -0.2260 N.pl3     1 OBT1        0.0000
     10 H4         -1.6630    1.2390    0.1350 H         1 OBT1        0.0000
     11 C5          0.0370    0.0850   -0.1090 C.ar      1 OBT1        0.0000
     12 C6         -0.6740   -1.1230   -0.0730 C.ar      1 OBT1        0.0000
     13 H6         -1.7530   -1.1180   -0.1080 H         1 OBT1        0.0000
     14 C7          0.0070   -2.3460    0.0020 C.ar      1 OBT1        0.0000
     15 H7         -0.5470   -3.2740    0.0310 H         1 OBT1        0.0000
     16 C8          1.4060   -2.3680    0.0340 C.ar      1 OBT1        0.0000
     17 H8          1.9320   -3.3110    0.0930 H         1 OBT1        0.0000
     18 C9          2.1270   -1.1690   -0.0070 C.ar      1 OBT1        0.0000
     19 H9          3.2080   -1.1870    0.0240 H         1 OBT1        0.0000
     20 C10         1.4520    0.0640   -0.0860 C.ar      1 OBT1        0.0000
@<TRIPOS>BOND
     1    3    2 1 
     2    5    1 2 
     3    2    1 1 
     4    2    6 1 
     5    9   11 1 
     6    9   10 1 
     7    9    6 1 
     8   11   20 ar
     9   11   12 ar
    10   13   12 1 
    11   20    1 1 
    12   20   18 ar
    13   12   14 ar
    14    1    4 2 
    15    7    6 1 
    16   18   19 1 
    17   18   16 ar
    18   14   15 1 
    19   14   16 ar
    20   16   17 1 
    21    6    8 1 
