@<TRIPOS>MOLECULE
C:\Users\Praveer\PycharmProjects\pdb_to_mol2_converter\data\pdb\ocoh.pdb
   27    26     0     0     0
SMALL
GASTEIGER

@<TRIPOS>ATOM
      1 C1          1.0990    0.0070   -0.0300 C.3       1 OCO1        0.0000
      2 H11        -0.0130    0.0390   -0.0850 H         1 OCO1        0.0000
      3 H12         1.4780   -0.5210   -0.9330 H         1 OCO1        0.0000
      4 O1          1.4740   -0.7040    1.1410 O.3       1 OCO1        0.0000
      5 HO1         2.4340   -0.7020    1.1610 H         1 OCO1        0.0000
      6 C2          1.6570    1.4340    0.0350 C.3       1 OCO1        0.0000
      7 H21         1.2730    1.9340    0.9530 H         1 OCO1        0.0000
      8 H22         1.2670    2.0000   -0.8410 H         1 OCO1        0.0000
      9 C3          3.1940    1.5150    0.0190 C.3       1 OCO1        0.0000
     10 H31         3.5800    0.9860   -0.8810 H         1 OCO1        0.0000
     11 H32         3.6040    1.0040    0.9190 H         1 OCO1        0.0000
     12 C4          3.7050    2.9620    0.0040 C.3       1 OCO1        0.0000
     13 H41         3.3190    3.4940    0.9020 H         1 OCO1        0.0000
     14 H42         3.3050    3.4830   -0.8950 H         1 OCO1        0.0000
     15 C5          5.2380    3.0480   -0.0080 C.3       1 OCO1        0.0000
     16 H51         5.6280    2.5220   -0.9080 H         1 OCO1        0.0000
     17 H52         5.6390    2.5260    0.8900 H         1 OCO1        0.0000
     18 C6          5.7480    4.4960   -0.0120 C.3       1 OCO1        0.0000
     19 H61         5.3510    5.0250    0.8840 H         1 OCO1        0.0000
     20 H62         5.3550    5.0190   -0.9140 H         1 OCO1        0.0000
     21 C7          7.2790    4.5860   -0.0080 C.3       1 OCO1        0.0000
     22 H71         7.6730    4.0570   -0.9050 H         1 OCO1        0.0000
     23 H72         7.6670    4.0530    0.8900 H         1 OCO1        0.0000
     24 C8          7.8020    6.0250   -0.0020 C.3       1 OCO1        0.0000
     25 H81         7.4410    6.5670    0.8980 H         1 OCO1        0.0000
     26 H82         7.4490    6.5710   -0.9040 H         1 OCO1        0.0000
     27 H83         8.9130    6.0380    0.0030 H         1 OCO1        0.0000
@<TRIPOS>BOND
     1    3    1 1 
     2   20   18 1 
     3   16   15 1 
     4   22   21 1 
     5   26   24 1 
     6   14   12 1 
     7   10    9 1 
     8    8    6 1 
     9    2    1 1 
    10    1    6 1 
    11    1    4 1 
    12   18   15 1 
    13   18   21 1 
    14   18   19 1 
    15   15   12 1 
    16   15   17 1 
    17   21   24 1 
    18   21   23 1 
    19   24   27 1 
    20   24   25 1 
    21   12    9 1 
    22   12   13 1 
    23    9    6 1 
    24    9   11 1 
    25    6    7 1 
    26    4    5 1 
