@<TRIPOS>MOLECULE
C:\Users\Praveer\PycharmProjects\pdb_to_mol2_converter\data\pdb\oebz.pdb
   22    22     0     0     0
SMALL
GASTEIGER

@<TRIPOS>ATOM
      1 C1          1.4100   -0.0040    0.0890 C.ar      1 OEB1        0.0000
      2 H1          1.9500   -0.9380    0.1510 H         1 OEB1        0.0000
      3 C2          2.1050    1.2120    0.1020 C.ar      1 OEB1        0.0000
      4 H2          3.1830    1.2170    0.1730 H         1 OEB1        0.0000
      5 C3          1.4030    2.4210    0.0210 C.ar      1 OEB1        0.0000
      6 H3          1.9420    3.3580    0.0320 H         1 OEB1        0.0000
      7 C4          0.0030    2.4180   -0.0740 C.ar      1 OEB1        0.0000
      8 H4         -0.5040    3.3670   -0.1320 H         1 OEB1        0.0000
      9 C6          0.0130   -0.0040   -0.0050 C.ar      1 OEB1        0.0000
     10 H6         -0.5310   -0.9380   -0.0170 H         1 OEB1        0.0000
     11 C5         -0.7050    1.1950   -0.0890 C.ar      1 OEB1        0.0000
     12 O7         -2.1110    1.1210   -0.1840 O.3       1 OEB1        0.0000
     13 C7         -2.8390    2.3540   -0.3140 C.3       1 OEB1        0.0000
     14 H71        -2.5030    2.9010   -1.2220 H         1 OEB1        0.0000
     15 H72        -2.6790    2.9870    0.5850 H         1 OEB1        0.0000
     16 C8         -4.3640    2.1600   -0.4570 C.2       1 OEB1        0.0000
     17 O8         -4.9760    1.1070   -0.4540 O.2       1 OEB1        0.0000
     18 O9         -4.9340    3.3680   -0.5940 O.3       1 OEB1        0.0000
     19 C10        -6.3610    3.2820   -0.7500 C.3       1 OEB1        0.0000
     20 H101       -6.8320    2.8310    0.1520 H         1 OEB1        0.0000
     21 H102       -6.6270    2.6640   -1.6380 H         1 OEB1        0.0000
     22 H103       -6.7860    4.3000   -0.8950 H         1 OEB1        0.0000
@<TRIPOS>BOND
     1   21   19 1 
     2   14   13 1 
     3   22   19 1 
     4   19   18 1 
     5   19   20 1 
     6   18   16 1 
     7   16   17 2 
     8   16   13 1 
     9   13   12 1 
    10   13   15 1 
    11   12   11 1 
    12    8    7 1 
    13   11    7 ar
    14   11    9 ar
    15    7    5 ar
    16   10    9 1 
    17    9    1 ar
    18    5    6 1 
    19    5    3 ar
    20    1    3 ar
    21    1    2 1 
    22    3    4 1 
