@<TRIPOS>MOLECULE
C:\Users\Praveer\PycharmProjects\pdb_to_mol2_converter\data\pdb\ole.pdb
   53    52     0     0     0
SMALL
GASTEIGER

@<TRIPOS>ATOM
      1 O1          0.0220   -0.1070    0.0800 O.co2     1 OLE1        0.0000
      2 O2          2.0920   -0.9180    0.0310 O.co2     1 OLE1        0.0000
      3 C1          1.2710    0.0350    0.0360 C.2       1 OLE1        0.0000
      4 C2          1.7970    1.4700   -0.0160 C.3       1 OLE1        0.0000
      5 H2R         1.4140    1.9940    0.8830 H         1 OLE1        0.0000
      6 H2S         1.3590    1.9440   -0.9180 H         1 OLE1        0.0000
      7 C3          3.3390    1.5570   -0.0670 C.3       1 OLE1        0.0000
      8 H3R         3.7020    0.9770   -0.9450 H         1 OLE1        0.0000
      9 H3S         3.7580    1.0750    0.8450 H         1 OLE1        0.0000
     10 C4          3.8430    3.0020   -0.1680 C.3       1 OLE1        0.0000
     11 H4R         3.4780    3.5760    0.7120 H         1 OLE1        0.0000
     12 H4S         3.4060    3.4650   -1.0810 H         1 OLE1        0.0000
     13 C5          5.3740    3.0890   -0.2390 C.3       1 OLE1        0.0000
     14 H5R         5.7270    2.4610   -1.0880 H         1 OLE1        0.0000
     15 H5S         5.8040    2.6650    0.6960 H         1 OLE1        0.0000
     16 C6          5.8790    4.5250   -0.4320 C.3       1 OLE1        0.0000
     17 H6R         5.5300    5.1530    0.4180 H         1 OLE1        0.0000
     18 H6S         5.4330    4.9380   -1.3640 H         1 OLE1        0.0000
     19 C7          7.4090    4.6060   -0.5290 C.3       1 OLE1        0.0000
     20 H7R         7.7470    3.9270   -1.3450 H         1 OLE1        0.0000
     21 H7S         7.8470    4.2350    0.4250 H         1 OLE1        0.0000
     22 C8          7.9050    6.0370   -0.8080 C.3       1 OLE1        0.0000
     23 H8R         7.5130    6.6930    0.0020 H         1 OLE1        0.0000
     24 H8S         7.4470    6.3880   -1.7590 H         1 OLE1        0.0000
     25 C9          9.4100    6.0970   -0.9100 C.2       1 OLE1        0.0000
     26 H9R         9.8510    5.3740   -1.6140 H         1 OLE1        0.0000
     27 C10        10.2310    6.9070   -0.2160 C.2       1 OLE1        0.0000
     28 H10R       11.3170    6.8300   -0.3800 H         1 OLE1        0.0000
     29 C11         9.8140    7.9560    0.7870 C.3       1 OLE1        0.0000
     30 H11R        8.7960    8.3480    0.5650 H         1 OLE1        0.0000
     31 H11S       10.5030    8.8270    0.7320 H         1 OLE1        0.0000
     32 C12         9.8170    7.4130    2.2270 C.3       1 OLE1        0.0000
     33 H12R       10.8350    7.0490    2.4900 H         1 OLE1        0.0000
     34 H12S        9.1180    6.5480    2.2980 H         1 OLE1        0.0000
     35 C13         9.3910    8.4750    3.2510 C.3       1 OLE1        0.0000
     36 H13R        8.3720    8.8410    2.9910 H         1 OLE1        0.0000
     37 H13S       10.0870    9.3410    3.1890 H         1 OLE1        0.0000
     38 C14         9.3790    7.9410    4.6890 C.3       1 OLE1        0.0000
     39 H14R       10.3980    7.5770    4.9510 H         1 OLE1        0.0000
     40 H14S        8.6840    7.0730    4.7490 H         1 OLE1        0.0000
     41 C15         8.9460    9.0030    5.7090 C.3       1 OLE1        0.0000
     42 H15R        7.9250    9.3630    5.4480 H         1 OLE1        0.0000
     43 H15S        9.6380    9.8720    5.6450 H         1 OLE1        0.0000
     44 C16         8.9390    8.4720    7.1490 C.3       1 OLE1        0.0000
     45 H16R        9.9580    8.1090    7.4090 H         1 OLE1        0.0000
     46 H16S        8.2440    7.6050    7.2150 H         1 OLE1        0.0000
     47 C17         8.5110    9.5360    8.1690 C.3       1 OLE1        0.0000
     48 H17R        7.4920    9.8980    7.9030 H         1 OLE1        0.0000
     49 H17S        9.2040   10.4050    8.0910 H         1 OLE1        0.0000
     50 C18         8.5030    9.0250    9.6120 C.3       1 OLE1        0.0000
     51 H18R        9.5180    8.6810    9.9080 H         1 OLE1        0.0000
     52 H18S        7.7980    8.1730    9.7190 H         1 OLE1        0.0000
     53 H18T        8.1890    9.8310   10.3100 H         1 OLE1        0.0000
@<TRIPOS>BOND
     1   24   22 1 
     2   26   25 1 
     3   18   16 1 
     4   20   19 1 
     5   14   13 1 
     6   12   10 1 
     7    8    7 1 
     8    6    4 1 
     9   25   22 1 
    10   25   27 2 
    11   22   19 1 
    12   22   23 1 
    13   19   16 1 
    14   19   21 1 
    15   16   13 1 
    16   16   17 1 
    17   28   27 1 
    18   13   10 1 
    19   13   15 1 
    20   27   29 1 
    21   10    7 1 
    22   10   11 1 
    23    7    4 1 
    24    7    9 1 
    25    4    3 1 
    26    4    5 1 
    27    2    3 ar
    28    3    1 ar
    29   30   29 1 
    30   31   29 1 
    31   29   32 1 
    32   32   34 1 
    33   32   33 1 
    34   32   35 1 
    35   36   35 1 
    36   37   35 1 
    37   35   38 1 
    38   38   40 1 
    39   38   39 1 
    40   38   41 1 
    41   42   41 1 
    42   43   41 1 
    43   41   44 1 
    44   44   46 1 
    45   44   45 1 
    46   44   47 1 
    47   48   47 1 
    48   49   47 1 
    49   47   50 1 
    50   50   52 1 
    51   50   51 1 
    52   50   53 1 
