@<TRIPOS>MOLECULE
C:\Users\Praveer\PycharmProjects\pdb_to_mol2_converter\data\pdb\olep.pdb
   54    53     0     0     0
SMALL
GASTEIGER

@<TRIPOS>ATOM
      1 H1          0.0240   -0.0620   -0.2200 H         1 OLE1        0.0000
      2 O1          0.9690   -0.0620   -0.0830 O.3       1 OLE1        0.0000
      3 O2          0.5640    2.1450   -0.1910 O.2       1 OLE1        0.0000
      4 C1          1.3770    1.2500   -0.0540 C.2       1 OLE1        0.0000
      5 C2          2.8790    1.3940    0.1600 C.3       1 OLE1        0.0000
      6 H2R         3.4030    0.8630   -0.6620 H         1 OLE1        0.0000
      7 H2S         3.1420    0.9040    1.1220 H         1 OLE1        0.0000
      8 C3          3.3160    2.8740    0.1920 C.3       1 OLE1        0.0000
      9 H3R         2.7710    3.4080    1.0040 H         1 OLE1        0.0000
     10 H3S         3.0510    3.3680   -0.7710 H         1 OLE1        0.0000
     11 C4          4.8240    3.0290    0.4310 C.3       1 OLE1        0.0000
     12 H4R         5.3840    2.5170   -0.3840 H         1 OLE1        0.0000
     13 H4S         5.0920    2.5320    1.3910 H         1 OLE1        0.0000
     14 C5          5.2600    4.4990    0.4950 C.3       1 OLE1        0.0000
     15 H5R         4.6710    5.0170    1.2850 H         1 OLE1        0.0000
     16 H5S         5.0320    4.9940   -0.4750 H         1 OLE1        0.0000
     17 C6          6.7540    4.6550    0.8070 C.3       1 OLE1        0.0000
     18 H6R         7.3510    4.1450    0.0180 H         1 OLE1        0.0000
     19 H6S         6.9740    4.1540    1.7760 H         1 OLE1        0.0000
     20 C7          7.1900    6.1240    0.8960 C.3       1 OLE1        0.0000
     21 H7R         6.5480    6.6400    1.6460 H         1 OLE1        0.0000
     22 H7S         7.0170    6.6090   -0.0920 H         1 OLE1        0.0000
     23 C8          8.6700    6.2700    1.2940 C.3       1 OLE1        0.0000
     24 H8R         9.2780    5.7020    0.5540 H         1 OLE1        0.0000
     25 H8S         8.8200    5.7790    2.2810 H         1 OLE1        0.0000
     26 C9          9.0780    7.7210    1.3740 C.2       1 OLE1        0.0000
     27 H9R         8.4310    8.3440    2.0110 H         1 OLE1        0.0000
     28 C10        10.1070    8.3050    0.7310 C.2       1 OLE1        0.0000
     29 H10R       10.2730    9.3850    0.8700 H         1 OLE1        0.0000
     30 C11        11.0980    7.6240   -0.1800 C.3       1 OLE1        0.0000
     31 H11R       11.2110    6.5460    0.0710 H         1 OLE1        0.0000
     32 H11S       12.1050    8.0800   -0.0520 H         1 OLE1        0.0000
     33 C12        10.6910    7.7330   -1.6610 C.3       1 OLE1        0.0000
     34 H12R       10.6010    8.8050   -1.9500 H         1 OLE1        0.0000
     35 H12S        9.6950    7.2570   -1.8060 H         1 OLE1        0.0000
     36 C13        11.7040    7.0520   -2.5920 C.3       1 OLE1        0.0000
     37 H13R       11.7990    5.9820   -2.3020 H         1 OLE1        0.0000
     38 H13S       12.7000    7.5300   -2.4580 H         1 OLE1        0.0000
     39 C14        11.3010    7.1350   -4.0700 C.3       1 OLE1        0.0000
     40 H14R       11.2060    8.2050   -4.3630 H         1 OLE1        0.0000
     41 H14S       10.3040    6.6580   -4.2030 H         1 OLE1        0.0000
     42 C15        12.3140    6.4480   -4.9950 C.3       1 OLE1        0.0000
     43 H15R       12.4100    5.3790   -4.6980 H         1 OLE1        0.0000
     44 H15S       13.3110    6.9260   -4.8630 H         1 OLE1        0.0000
     45 C16        11.9110    6.5240   -6.4730 C.3       1 OLE1        0.0000
     46 H16R       11.8200    7.5930   -6.7710 H         1 OLE1        0.0000
     47 H16S       10.9120    6.0510   -6.6030 H         1 OLE1        0.0000
     48 C17        12.9170    5.8300   -7.4000 C.3       1 OLE1        0.0000
     49 H17R       13.0080    4.7620   -7.0950 H         1 OLE1        0.0000
     50 H17S       13.9170    6.3010   -7.2620 H         1 OLE1        0.0000
     51 C18        12.5260    5.9010   -8.8780 C.3       1 OLE1        0.0000
     52 H18R       12.4540    6.9590   -9.2100 H         1 OLE1        0.0000
     53 H18S       11.5400    5.4150   -9.0420 H         1 OLE1        0.0000
     54 H18T       13.2810    5.3850   -9.5090 H         1 OLE1        0.0000
@<TRIPOS>BOND
     1   54   51 1 
     2   52   51 1 
     3   53   51 1 
     4   51   48 1 
     5   48   50 1 
     6   48   49 1 
     7   48   45 1 
     8   46   45 1 
     9   47   45 1 
    10   45   42 1 
    11   42   44 1 
    12   42   43 1 
    13   42   39 1 
    14   40   39 1 
    15   41   39 1 
    16   39   36 1 
    17   36   38 1 
    18   36   37 1 
    19   36   33 1 
    20   34   33 1 
    21   35   33 1 
    22   33   30 1 
    23   10    8 1 
    24    6    5 1 
    25   16   14 1 
    26   12   11 1 
    27    1    2 1 
    28    3    4 2 
    29   30   32 1 
    30   30   31 1 
    31   30   28 1 
    32   22   20 1 
    33    2    4 1 
    34    4    5 1 
    35   18   17 1 
    36    5    8 1 
    37    5    7 1 
    38    8   11 1 
    39    8    9 1 
    40   11   14 1 
    41   11   13 1 
    42   14   17 1 
    43   14   15 1 
    44   24   23 1 
    45   28   29 1 
    46   28   26 2 
    47   17   20 1 
    48   17   19 1 
    49   20   23 1 
    50   20   21 1 
    51   23   26 1 
    52   23   25 1 
    53   26   27 1 
