@<TRIPOS>MOLECULE
C:\Users\Praveer\PycharmProjects\pdb_to_mol2_converter\data\pdb\osm.pdb
  131   130     0     0     0
SMALL
GASTEIGER

@<TRIPOS>ATOM
      1 N          21.4480    4.8090    6.7310 N.4       1 OSM1        0.0000
      2 C15        22.5070    5.7900    7.1270 C.3       1 OSM1        0.0000
      3 H15A       22.4090    6.6940    6.5340 H         1 OSM1        0.0000
      4 H15B       23.4960    5.3850    6.9600 H         1 OSM1        0.0000
      5 H15C       22.4140    6.0660    8.1690 H         1 OSM1        0.0000
      6 C14        21.5980    4.4640    5.2750 C.3       1 OSM1        0.0000
      7 H14A       22.5550    4.0370    5.0360 H         1 OSM1        0.0000
      8 H14B       21.4220    5.3400    4.6470 H         1 OSM1        0.0000
      9 H14C       20.8050    3.7780    4.9680 H         1 OSM1        0.0000
     10 C13        21.5850    3.5440    7.5230 C.3       1 OSM1        0.0000
     11 H13A       21.4660    3.7260    8.5830 H         1 OSM1        0.0000
     12 H13B       22.5540    3.0890    7.3580 H         1 OSM1        0.0000
     13 H13C       20.8270    2.8300    7.2130 H         1 OSM1        0.0000
     14 C12        20.0610    5.3990    6.9420 C.3       1 OSM1        0.0000
     15 H12A       19.8400    5.5250    7.9910 H         1 OSM1        0.0000
     16 H12B       19.3250    4.6790    6.5640 H         1 OSM1        0.0000
     17 C11        19.7420    6.7160    6.2050 C.3       1 OSM1        0.0000
     18 H11A       20.5570    7.0350    5.5150 H         1 OSM1        0.0000
     19 H11B       19.6240    7.5320    6.9530 H         1 OSM1        0.0000
     20 P          18.4950    5.5480    4.2720 P.3       1 OSM1        0.0000
     21 O13        19.6460    5.8930    3.4030 O.2       1 OSM1        0.0000
     22 O14        18.4760    4.1780    4.8280 O.3       1 OSM1        0.0000
     23 O11        17.1450    5.8910    3.5270 O.3       1 OSM1        0.0000
     24 O12        18.5150    6.5570    5.4970 O.3       1 OSM1        0.0000
     25 C1S        16.8420    7.2160    3.0730 C.3       1 OSM1        0.0000
     26 H1S        17.4170    7.9980    3.6210 H         1 OSM1        0.0000
     27 H1T        15.7690    7.4070    3.2870 H         1 OSM1        0.0000
     28 NF         18.4700    7.1230    1.2430 N.am      1 OSM1        0.0000
     29 HNF        19.0170    6.7970    2.0260 H         1 OSM1        0.0000
     30 C2S        17.0810    7.3950    1.5340 C.3       1 OSM1        0.0000
     31 H2S        16.4990    6.5840    1.0350 H         1 OSM1        0.0000
     32 C3S        16.5360    8.7520    0.9970 C.3       1 OSM1        0.0000
     33 H3S        16.8590    8.9200   -0.0510 H         1 OSM1        0.0000
     34 O3         17.0220    9.8680    1.7420 O.3       1 OSM1        0.0000
     35 HO3        17.8040    9.5400    2.1920 H         1 OSM1        0.0000
     36 C4S        15.0370    8.7720    1.0640 C.2       1 OSM1        0.0000
     37 H4S        14.6100    9.0520    2.0370 H         1 OSM1        0.0000
     38 C5S        14.2300    8.4940    0.0230 C.2       1 OSM1        0.0000
     39 H5S        14.6800    8.2230   -0.9470 H         1 OSM1        0.0000
     40 C6S        12.7250    8.4870    0.0690 C.3       1 OSM1        0.0000
     41 H6S        12.3170    9.0560   -0.7960 H         1 OSM1        0.0000
     42 H6T        12.3400    8.9780    0.9920 H         1 OSM1        0.0000
     43 C7S        12.1760    7.0500    0.0200 C.3       1 OSM1        0.0000
     44 H7S        12.5480    6.4770    0.9010 H         1 OSM1        0.0000
     45 H7T        12.5420    6.5340   -0.8970 H         1 OSM1        0.0000
     46 C8S        10.6420    7.0150    0.0230 C.3       1 OSM1        0.0000
     47 H8S        10.2650    7.5640   -0.8690 H         1 OSM1        0.0000
     48 H8T        10.2690    7.5430    0.9280 H         1 OSM1        0.0000
     49 C9S        10.0760    5.5890    0.0080 C.3       1 OSM1        0.0000
     50 H9S        10.4450    5.0400    0.9040 H         1 OSM1        0.0000
     51 H9T        10.4490    5.0540   -0.8940 H         1 OSM1        0.0000
     52 C10S        8.5420    5.5810    0.0050 C.3       1 OSM1        0.0000
     53 H10S        8.1790    6.1300   -0.8940 H         1 OSM1        0.0000
     54 H10T        8.1760    6.1250    0.9040 H         1 OSM1        0.0000
     55 C11S        7.9470    4.1670    0.0010 C.3       1 OSM1        0.0000
     56 H11S        8.3070    3.6160    0.8990 H         1 OSM1        0.0000
     57 H11T        8.3090    3.6200   -0.8990 H         1 OSM1        0.0000
     58 C12S        6.4120    4.1820    0.0000 C.3       1 OSM1        0.0000
     59 H12S        6.0550    4.7340   -0.8980 H         1 OSM1        0.0000
     60 H12T        6.0550    4.7330    0.8990 H         1 OSM1        0.0000
     61 C13S        5.8030    2.7740   -0.0000 C.3       1 OSM1        0.0000
     62 H13S        6.1600    2.2230    0.8980 H         1 OSM1        0.0000
     63 H13T        6.1600    2.2230   -0.8990 H         1 OSM1        0.0000
     64 C14S        4.2680    2.7940   -0.0000 C.3       1 OSM1        0.0000
     65 H14S        3.9110    3.3460   -0.8990 H         1 OSM1        0.0000
     66 H14T        3.9110    3.3450    0.8980 H         1 OSM1        0.0000
     67 C15S        3.6580    1.3850   -0.0000 C.3       1 OSM1        0.0000
     68 H15S        4.0160    0.8350    0.8990 H         1 OSM1        0.0000
     69 H15T        4.0160    0.8350   -0.8990 H         1 OSM1        0.0000
     70 C16S        2.1230    1.4020   -0.0010 C.3       1 OSM1        0.0000
     71 H16S        1.7650    1.9530   -0.9000 H         1 OSM1        0.0000
     72 H16T        1.7640    1.9530    0.8980 H         1 OSM1        0.0000
     73 C17S        1.5150   -0.0070   -0.0010 C.3       1 OSM1        0.0000
     74 H17S        1.8820   -0.5550    0.8970 H         1 OSM1        0.0000
     75 H17T        1.8820   -0.5550   -0.8990 H         1 OSM1        0.0000
     76 C18S       -0.0160   -0.0090   -0.0010 C.3       1 OSM1        0.0000
     77 H18S       -0.4050    0.5120   -0.9030 H         1 OSM1        0.0000
     78 H18T       -0.4050    0.5120    0.9000 H         1 OSM1        0.0000
     79 H18U       -0.4050   -1.0490   -0.0020 H         1 OSM1        0.0000
     80 C1F        18.8920    6.8910    0.0040 C.2       1 OSM1        0.0000
     81 OF         18.1300    6.9570   -0.9520 O.2       1 OSM1        0.0000
     82 C2F        20.3110    6.4400   -0.1380 C.3       1 OSM1        0.0000
     83 H2F        20.3240    5.3290   -0.1640 H         1 OSM1        0.0000
     84 H2G        20.8910    6.7670    0.7510 H         1 OSM1        0.0000
     85 C3F        20.9740    6.9910   -1.4180 C.3       1 OSM1        0.0000
     86 H3F        20.9910    8.1030   -1.3870 H         1 OSM1        0.0000
     87 H3G        20.3780    6.6810   -2.3070 H         1 OSM1        0.0000
     88 C4F        22.4020    6.4540   -1.5610 C.3       1 OSM1        0.0000
     89 H4F        22.3580    5.3410   -1.5450 H         1 OSM1        0.0000
     90 H4G        23.0010    6.7790   -0.6820 H         1 OSM1        0.0000
     91 C5F        23.1170    6.8900   -2.8450 C.3       1 OSM1        0.0000
     92 H5F        23.2280    7.9960   -2.8580 H         1 OSM1        0.0000
     93 H5G        22.5040    6.5960   -3.7260 H         1 OSM1        0.0000
     94 C6F        24.4920    6.2200   -2.9270 C.3       1 OSM1        0.0000
     95 H6F        24.3450    5.1180   -2.8450 H         1 OSM1        0.0000
     96 H6G        25.1010    6.5400   -2.0510 H         1 OSM1        0.0000
     97 C7F        25.2790    6.5040   -4.2120 C.3       1 OSM1        0.0000
     98 H7F        25.4910    7.5950   -4.2810 H         1 OSM1        0.0000
     99 H7G        24.6630    6.2130   -5.0920 H         1 OSM1        0.0000
    100 C8F        26.5950    5.7030   -4.2050 C.3       1 OSM1        0.0000
    101 H8F        26.3270    4.6260   -4.1080 H         1 OSM1        0.0000
    102 H8G        27.1490    5.9820   -3.2790 H         1 OSM1        0.0000
    103 C9F        27.4790    5.9020   -5.4080 C.2       1 OSM1        0.0000
    104 H9F        27.1020    6.5830   -6.1880 H         1 OSM1        0.0000
    105 C10F       28.6720    5.2970   -5.5580 C.2       1 OSM1        0.0000
    106 H10F       29.2610    5.4880   -6.4670 H         1 OSM1        0.0000
    107 C11F       29.2550    4.3430   -4.5410 C.3       1 OSM1        0.0000
    108 H11F       28.5460    3.4940   -4.3990 H         1 OSM1        0.0000
    109 H11G       29.3100    4.8520   -3.5510 H         1 OSM1        0.0000
    110 C12F       30.6520    3.7130   -4.7900 C.3       1 OSM1        0.0000
    111 H12F       30.5540    2.6090   -4.6790 H         1 OSM1        0.0000
    112 H12G       31.3380    4.0570   -3.9830 H         1 OSM1        0.0000
    113 C13F       31.3260    4.0010   -6.1410 C.3       1 OSM1        0.0000
    114 H13F       31.5000    5.0950   -6.2390 H         1 OSM1        0.0000
    115 H13G       30.6550    3.6780   -6.9680 H         1 OSM1        0.0000
    116 C14F       32.6710    3.2720   -6.2810 C.3       1 OSM1        0.0000
    117 H14F       32.4980    2.1750   -6.2000 H         1 OSM1        0.0000
    118 H14G       33.3370    3.5710   -5.4410 H         1 OSM1        0.0000
    119 C15F       33.3770    3.5690   -7.6100 C.3       1 OSM1        0.0000
    120 H15F       33.5710    4.6630   -7.6850 H         1 OSM1        0.0000
    121 H15G       32.7040    3.2860   -8.4500 H         1 OSM1        0.0000
    122 C16F       34.7050    2.8120   -7.7560 C.3       1 OSM1        0.0000
    123 H16F       34.5130    1.7190   -7.6610 H         1 OSM1        0.0000
    124 H16G       35.3880    3.1080   -6.9290 H         1 OSM1        0.0000
    125 C17F       35.3970    3.0800   -9.0990 C.3       1 OSM1        0.0000
    126 H17F       35.5890    4.1730   -9.1920 H         1 OSM1        0.0000
    127 H17G       34.7040    2.7920   -9.9220 H         1 OSM1        0.0000
    128 C18F       36.7150    2.3200   -9.2630 C.3       1 OSM1        0.0000
    129 H18F       36.5420    1.2240   -9.1990 H         1 OSM1        0.0000
    130 H18G       37.4320    2.6080   -8.4630 H         1 OSM1        0.0000
    131 H18H       37.1780    2.5460  -10.2470 H         1 OSM1        0.0000
@<TRIPOS>BOND
     1  131  128 1 
     2  127  125 1 
     3  128  129 1 
     4  128  125 1 
     5  128  130 1 
     6  126  125 1 
     7  125  122 1 
     8  121  119 1 
     9  122  123 1 
    10  122  119 1 
    11  122  124 1 
    12  120  119 1 
    13  119  116 1 
    14  115  113 1 
    15  106  105 1 
    16  116  117 1 
    17  116  113 1 
    18  116  118 1 
    19  114  113 1 
    20  104  103 1 
    21  113  110 1 
    22  105  103 2 
    23  105  107 1 
    24  103  100 1 
    25   99   97 1 
    26  110  111 1 
    27  110  107 1 
    28  110  112 1 
    29  107  108 1 
    30  107  109 1 
    31   98   97 1 
    32   97  100 1 
    33   97   94 1 
    34  100  101 1 
    35  100  102 1 
    36   93   91 1 
    37   94   91 1 
    38   94   95 1 
    39   94   96 1 
    40   92   91 1 
    41   91   88 1 
    42   87   85 1 
    43   88   89 1 
    44   88   85 1 
    45   88   90 1 
    46   85   86 1 
    47   85   82 1 
    48   81   80 2 
    49   39   38 1 
    50   77   76 1 
    51   71   70 1 
    52   65   64 1 
    53   75   73 1 
    54   69   67 1 
    55   57   55 1 
    56   63   61 1 
    57   59   58 1 
    58   45   43 1 
    59   53   52 1 
    60   51   49 1 
    61   47   46 1 
    62   41   40 1 
    63   83   82 1 
    64   82   80 1 
    65   82   84 1 
    66   33   32 1 
    67   79   76 1 
    68   73   76 1 
    69   73   70 1 
    70   73   74 1 
    71   76   78 1 
    72   70   67 1 
    73   70   72 1 
    74   64   61 1 
    75   64   67 1 
    76   64   66 1 
    77   61   58 1 
    78   61   62 1 
    79   58   55 1 
    80   58   60 1 
    81   67   68 1 
    82   55   52 1 
    83   55   56 1 
    84   80   28 am
    85   52   49 1 
    86   52   54 1 
    87   49   46 1 
    88   49   50 1 
    89   43   46 1 
    90   43   40 1 
    91   43   44 1 
    92   46   48 1 
    93   38   40 1 
    94   38   36 2 
    95   40   42 1 
    96   32   36 1 
    97   32   30 1 
    98   32   34 1 
    99   31   30 1 
   100   36   37 1 
   101   28   30 1 
   102   28   29 1 
   103   30   25 1 
   104   34   35 1 
   105   25   27 1 
   106   25   23 1 
   107   25   26 1 
   108   21   20 2 
   109   23   20 1 
   110   20   22 1 
   111   20   24 1 
   112    8    6 1 
   113    9    6 1 
   114    7    6 1 
   115    6    1 1 
   116   24   17 1 
   117   18   17 1 
   118   17   14 1 
   119   17   19 1 
   120    3    2 1 
   121   16   14 1 
   122    1   14 1 
   123    1    2 1 
   124    1   10 1 
   125   14   15 1 
   126    4    2 1 
   127    2    5 1 
   128   13   10 1 
   129   12   10 1 
   130   10   11 1 
