@<TRIPOS>MOLECULE
C:\Users\Praveer\PycharmProjects\pdb_to_mol2_converter\data\pdb\ospe.pdb
  123   122     0     0     0
SMALL
GASTEIGER

@<TRIPOS>ATOM
      1 N           0.8230    0.3350   -0.2600 N.4       1 OSP1        0.0000
      2 HN1         0.8620    0.0410   -1.2530 H         1 OSP1        0.0000
      3 HN2        -0.0910    0.8090   -0.0550 H         1 OSP1        0.0000
      4 HN3         0.9170   -0.4710    0.3860 H         1 OSP1        0.0000
      5 C12         1.8300    1.4010    0.0720 C.3       1 OSP1        0.0000
      6 H12A        1.7940    2.1560   -0.7450 H         1 OSP1        0.0000
      7 H12B        2.8390    0.9480    0.1260 H         1 OSP1        0.0000
      8 C11         1.4090    2.0390    1.4020 C.3       1 OSP1        0.0000
      9 H11A        1.9920    2.9790    1.5790 H         1 OSP1        0.0000
     10 H11B        1.6530    1.3520    2.2430 H         1 OSP1        0.0000
     11 P          -0.5960    3.6240    0.8760 P.3       1 OSP1        0.0000
     12 O13        -1.9680    3.3300    0.4260 O.3       1 OSP1        0.0000
     13 O14         0.3650    4.1450   -0.1140 O.2       1 OSP1        0.0000
     14 O11        -0.5850    4.4710    2.2140 O.3       1 OSP1        0.0000
     15 O12        -0.0050    2.2450    1.4030 O.3       1 OSP1        0.0000
     16 C1         -1.3670    4.0340    3.3350 C.3       1 OSP1        0.0000
     17 HA         -1.6720    2.9620    3.2580 H         1 OSP1        0.0000
     18 HB         -2.3030    4.6300    3.3800 H         1 OSP1        0.0000
     19 C2         -0.5840    4.1650    4.6750 C.3       1 OSP1        0.0000
     20 HS         -1.1220    3.5600    5.4440 H         1 OSP1        0.0000
     21 O21        -0.4800    5.5390    5.0960 O.3       1 OSP1        0.0000
     22 C21        -1.5900    6.0170    5.6390 C.2       1 OSP1        0.0000
     23 O22        -2.6190    5.3910    5.8250 O.2       1 OSP1        0.0000
     24 C22        -1.3780    7.4840    6.0120 C.3       1 OSP1        0.0000
     25 H2R        -1.8710    8.0910    5.2240 H         1 OSP1        0.0000
     26 H2S        -0.2940    7.7130    5.9950 H         1 OSP1        0.0000
     27 C3          0.8350    3.5510    4.5620 C.3       1 OSP1        0.0000
     28 HX          1.3640    4.1110    3.7540 H         1 OSP1        0.0000
     29 HY          0.7270    2.4980    4.2210 H         1 OSP1        0.0000
     30 O31         1.5020    3.5750    5.8460 O.3       1 OSP1        0.0000
     31 C31         2.6760    4.1930    5.8860 C.2       1 OSP1        0.0000
     32 O32         3.3000    4.6130    4.9330 O.2       1 OSP1        0.0000
     33 C32         3.1370    4.2680    7.3410 C.3       1 OSP1        0.0000
     34 H2X         3.1330    3.2360    7.7490 H         1 OSP1        0.0000
     35 H2Y         2.3990    4.8760    7.9020 H         1 OSP1        0.0000
     36 C23        -1.9910    7.8380    7.3870 C.3       1 OSP1        0.0000
     37 H3R        -3.0840    7.6240    7.3830 H         1 OSP1        0.0000
     38 H3S        -1.8700    8.9340    7.5460 H         1 OSP1        0.0000
     39 C24        -1.3460    7.1100    8.5800 C.3       1 OSP1        0.0000
     40 H4R        -1.6080    6.0280    8.5370 H         1 OSP1        0.0000
     41 H4S        -1.7890    7.5220    9.5160 H         1 OSP1        0.0000
     42 C25         0.1810    7.2550    8.6590 C.3       1 OSP1        0.0000
     43 H5R         0.4580    8.3100    8.4350 H         1 OSP1        0.0000
     44 H5S         0.6490    6.6090    7.8830 H         1 OSP1        0.0000
     45 C26         0.7580    6.8890   10.0380 C.3       1 OSP1        0.0000
     46 H6R         0.3940    7.6270   10.7870 H         1 OSP1        0.0000
     47 H6S         1.8660    6.9760    9.9950 H         1 OSP1        0.0000
     48 C27         0.3730    5.4800   10.5160 C.3       1 OSP1        0.0000
     49 H7R         0.6820    4.7300    9.7530 H         1 OSP1        0.0000
     50 H7S        -0.7350    5.4240   10.6070 H         1 OSP1        0.0000
     51 C28         0.9710    5.1110   11.8860 C.3       1 OSP1        0.0000
     52 H8R         0.4590    4.1910   12.2480 H         1 OSP1        0.0000
     53 H8S         0.7250    5.9100   12.6210 H         1 OSP1        0.0000
     54 C29         2.4620    4.9020   11.8140 C.2       1 OSP1        0.0000
     55 H9R         3.0680    5.8160   11.8990 H         1 OSP1        0.0000
     56 C210        3.0820    3.7170   11.6730 C.2       1 OSP1        0.0000
     57 H10R        4.1830    3.6940   11.6510 H         1 OSP1        0.0000
     58 C211        2.4060    2.3760   11.5270 C.3       1 OSP1        0.0000
     59 H11R        2.9320    1.7600   10.7650 H         1 OSP1        0.0000
     60 H11S        1.3590    2.4880   11.1630 H         1 OSP1        0.0000
     61 C212        2.3590    1.6090   12.8610 C.3       1 OSP1        0.0000
     62 H12R        1.7390    0.6940   12.7250 H         1 OSP1        0.0000
     63 H12S        1.8550    2.2440   13.6250 H         1 OSP1        0.0000
     64 C213        3.7420    1.1880   13.3840 C.3       1 OSP1        0.0000
     65 H13R        4.4140    2.0730   13.4190 H         1 OSP1        0.0000
     66 H13S        4.1900    0.4490   12.6820 H         1 OSP1        0.0000
     67 C214        3.6760    0.5860   14.7940 C.3       1 OSP1        0.0000
     68 H14R        2.9960   -0.2940   14.7880 H         1 OSP1        0.0000
     69 H14S        3.2410    1.3420   15.4860 H         1 OSP1        0.0000
     70 C215        5.0520    0.1630   15.3210 C.3       1 OSP1        0.0000
     71 H15R        5.7430    1.0350   15.2610 H         1 OSP1        0.0000
     72 H15S        5.4600   -0.6310   14.6540 H         1 OSP1        0.0000
     73 C216        5.0180   -0.3510   16.7630 C.3       1 OSP1        0.0000
     74 H16R        4.3310   -1.2200   16.8510 H         1 OSP1        0.0000
     75 H16S        4.6640    0.4480   17.4500 H         1 OSP1        0.0000
     76 H16T        6.0330   -0.6690   17.0870 H         1 OSP1        0.0000
     77 C33         4.5500    4.8750    7.4840 C.3       1 OSP1        0.0000
     78 H3X         4.5500    5.9350    7.1440 H         1 OSP1        0.0000
     79 H3Y         5.2610    4.3190    6.8310 H         1 OSP1        0.0000
     80 C34         5.0500    4.8020    8.9310 C.3       1 OSP1        0.0000
     81 H4X         4.9070    3.7600    9.2970 H         1 OSP1        0.0000
     82 H4Y         4.4280    5.4730    9.5640 H         1 OSP1        0.0000
     83 C35         6.5340    5.1670    9.0800 C.3       1 OSP1        0.0000
     84 H5X         6.7070    6.2080    8.7310 H         1 OSP1        0.0000
     85 H5Y         7.1190    4.4860    8.4180 H         1 OSP1        0.0000
     86 C36         7.0520    5.0070   10.5180 C.3       1 OSP1        0.0000
     87 H6X         8.1640    4.9430   10.4960 H         1 OSP1        0.0000
     88 H6Y         6.6750    4.0480   10.9350 H         1 OSP1        0.0000
     89 C37         6.6600    6.1640   11.4510 C.3       1 OSP1        0.0000
     90 H7X         5.5630    6.3350   11.3830 H         1 OSP1        0.0000
     91 H7Y         7.1750    7.0880   11.1010 H         1 OSP1        0.0000
     92 C38         7.0420    5.8730   12.9150 C.3       1 OSP1        0.0000
     93 H8X         8.1040    5.5430   12.9250 H         1 OSP1        0.0000
     94 H8Y         6.4340    5.0080   13.2630 H         1 OSP1        0.0000
     95 C39         6.8280    7.0530   13.8330 C.2       1 OSP1        0.0000
     96 H9X         6.0210    7.7400   13.5340 H         1 OSP1        0.0000
     97 C310        7.5390    7.3180   14.9470 C.2       1 OSP1        0.0000
     98 H10X        7.2920    8.2090   15.5460 H         1 OSP1        0.0000
     99 C311        8.6670    6.4700   15.4790 C.3       1 OSP1        0.0000
    100 H11X        9.2790    6.0580   14.6450 H         1 OSP1        0.0000
    101 H11Y        8.2490    5.6000   16.0340 H         1 OSP1        0.0000
    102 C312        9.6300    7.2080   16.4290 C.3       1 OSP1        0.0000
    103 H12X        9.0860    7.5210   17.3470 H         1 OSP1        0.0000
    104 H12Y       10.0280    8.1240   15.9360 H         1 OSP1        0.0000
    105 C313       10.8100    6.3050   16.8210 C.3       1 OSP1        0.0000
    106 H13X       11.3570    6.0320   15.8920 H         1 OSP1        0.0000
    107 H13Y       10.4140    5.3640   17.2660 H         1 OSP1        0.0000
    108 C314       11.7870    6.9490   17.8150 C.3       1 OSP1        0.0000
    109 H14X       11.2220    7.2470   18.7270 H         1 OSP1        0.0000
    110 H14Y       12.2130    7.8720   17.3650 H         1 OSP1        0.0000
    111 C315       12.9350    6.0110   18.2310 C.3       1 OSP1        0.0000
    112 H15X       12.5060    5.1010   18.7090 H         1 OSP1        0.0000
    113 H15Y       13.5610    6.5260   18.9940 H         1 OSP1        0.0000
    114 C316       13.8360    5.5830   17.0620 C.3       1 OSP1        0.0000
    115 H16X       14.2310    6.4920   16.5550 H         1 OSP1        0.0000
    116 H16Y       13.2370    5.0130   16.3180 H         1 OSP1        0.0000
    117 C317       15.0140    4.7030   17.5010 C.3       1 OSP1        0.0000
    118 H17X       14.6170    3.8130   18.0400 H         1 OSP1        0.0000
    119 H17Y       15.6430    5.2760   18.2200 H         1 OSP1        0.0000
    120 C318       15.8810    4.2350   16.3290 C.3       1 OSP1        0.0000
    121 H18X       16.3050    5.1070   15.7870 H         1 OSP1        0.0000
    122 H18Y       15.2760    3.6390   15.6130 H         1 OSP1        0.0000
    123 H18Z       16.7210    3.6030   16.6900 H         1 OSP1        0.0000
@<TRIPOS>BOND
     1    2    1 1 
     2    6    5 1 
     3    1    3 1 
     4    1    5 1 
     5    1    4 1 
     6   13   11 2 
     7    5    7 1 
     8    5    8 1 
     9   12   11 1 
    10   11   15 1 
    11   11   14 1 
    12    8   15 1 
    13    8    9 1 
    14    8   10 1 
    15   14   16 1 
    16   17   16 1 
    17   16   18 1 
    18   16   19 1 
    19   28   27 1 
    20   29   27 1 
    21   27   19 1 
    22   27   30 1 
    23   19   21 1 
    24   19   20 1 
    25   32   31 2 
    26   21   22 1 
    27   25   24 1 
    28   22   23 2 
    29   22   24 1 
    30   30   31 1 
    31   31   33 1 
    32   26   24 1 
    33   24   36 1 
    34   79   77 1 
    35   78   77 1 
    36   33   77 1 
    37   33   34 1 
    38   33   35 1 
    39   37   36 1 
    40   36   38 1 
    41   36   39 1 
    42   77   80 1 
    43   44   42 1 
    44   85   83 1 
    45   43   42 1 
    46   40   39 1 
    47   39   42 1 
    48   39   41 1 
    49   42   45 1 
    50   84   83 1 
    51   80   83 1 
    52   80   81 1 
    53   80   82 1 
    54   83   86 1 
    55   49   48 1 
    56   47   45 1 
    57   45   48 1 
    58   45   46 1 
    59   87   86 1 
    60   48   50 1 
    61   48   51 1 
    62   86   88 1 
    63   86   89 1 
    64   59   58 1 
    65   91   89 1 
    66   60   58 1 
    67   90   89 1 
    68   89   92 1 
    69   58   56 1 
    70   58   61 1 
    71   57   56 1 
    72   56   54 2 
    73   54   51 1 
    74   54   55 1 
    75   51   52 1 
    76   51   53 1 
    77   66   64 1 
    78   62   61 1 
    79   61   64 1 
    80   61   63 1 
    81   92   93 1 
    82   92   94 1 
    83   92   95 1 
    84   64   65 1 
    85   64   67 1 
    86   96   95 1 
    87   95   97 2 
    88  100   99 1 
    89   72   70 1 
    90   68   67 1 
    91   67   70 1 
    92   67   69 1 
    93   97   99 1 
    94   97   98 1 
    95   71   70 1 
    96   70   73 1 
    97   99  101 1 
    98   99  102 1 
    99  122  120 1 
   100  121  120 1 
   101  106  105 1 
   102  104  102 1 
   103  116  114 1 
   104  120  123 1 
   105  120  117 1 
   106  102  105 1 
   107  102  103 1 
   108  115  114 1 
   109   73   74 1 
   110   73   76 1 
   111   73   75 1 
   112  105  107 1 
   113  105  108 1 
   114  114  117 1 
   115  114  111 1 
   116  110  108 1 
   117  117  118 1 
   118  117  119 1 
   119  108  111 1 
   120  108  109 1 
   121  111  112 1 
   122  111  113 1 
