@<TRIPOS>MOLECULE
C:\Users\Praveer\PycharmProjects\pdb_to_mol2_converter\data\pdb\oxad.pdb
    7     7     0     0     0
SMALL
GASTEIGER

@<TRIPOS>ATOM
      1 C1          0.0320   -0.0130    0.0000 C.ar      1 OXA1        0.0000
      2 H1         -0.7160   -0.7930    0.0000 H         1 OXA1        0.0000
      3 C2          1.3740   -0.0380   -0.0000 C.ar      1 OXA1        0.0000
      4 H2          2.0760   -0.8620   -0.0000 H         1 OXA1        0.0000
      5 N3          1.8220    1.2680   -0.0000 N.ar      1 OXA1        0.0000
      6 N4          0.7970    2.0850    0.0000 N.ar      1 OXA1        0.0000
      7 O5         -0.3620    1.2870    0.0000 O.2       1 OXA1        0.0000
@<TRIPOS>BOND
     1    1    2 1 
     2    1    3 ar
     3    1    7 ar
     4    3    4 1 
     5    3    5 ar
     6    5    6 ar
     7    6    7 ar
