@<TRIPOS>MOLECULE
C:\Users\Praveer\PycharmProjects\pdb_to_mol2_converter\data\pdb\oxaz.pdb
    8     8     0     0     0
SMALL
GASTEIGER

@<TRIPOS>ATOM
      1 C1          1.3740    0.0070    0.0000 C.ar      1 OXA1        0.0000
      2 H1          1.8620   -0.9590    0.0000 H         1 OXA1        0.0000
      3 C2          1.8840    1.2630   -0.0000 C.ar      1 OXA1        0.0000
      4 H2          2.9120    1.6050   -0.0000 H         1 OXA1        0.0000
      5 N3          0.8420    2.1720   -0.0000 N.ar      1 OXA1        0.0000
      6 C4         -0.2400    1.4070   -0.0000 C.ar      1 OXA1        0.0000
      7 H4         -1.2700    1.7750   -0.0000 H         1 OXA1        0.0000
      8 O5          0.0070    0.0580    0.0000 O.2       1 OXA1        0.0000
@<TRIPOS>BOND
     1    1    2 1 
     2    1    3 ar
     3    1    8 ar
     4    3    4 1 
     5    3    5 ar
     6    5    6 ar
     7    6    7 1 
     8    6    8 ar
