@<TRIPOS>MOLECULE
C:\Users\Praveer\PycharmProjects\pdb_to_mol2_converter\data\pdb\oxd4.pdb
    7     7     0     0     0
SMALL
GASTEIGER

@<TRIPOS>ATOM
      1 C1          0.0100   -0.0840    0.0000 C.2       1 OXD1        0.0000
      2 H1         -0.5950   -0.9920    0.0000 H         1 OXD1        0.0000
      3 N2          1.3280   -0.0190    0.0000 N.2       1 OXD1        0.0000
      4 C3          1.5660    1.3000   -0.0000 C.2       1 OXD1        0.0000
      5 H3          2.5720    1.7250   -0.0000 H         1 OXD1        0.0000
      6 N4          0.4650    2.0540   -0.0000 N.4       1 OXD1        0.0000
      7 O5         -0.5690    1.1390    0.0000 O.2       1 OXD1        0.0000
@<TRIPOS>BOND
     1    1    2 1 
     2    1    3 2 
     3    1    7 1 
     4    3    4 2 
     5    4    5 1 
     6    4    6 1 
     7    6    7 1 
