@<TRIPOS>MOLECULE
C:\Users\Praveer\PycharmProjects\pdb_to_mol2_converter\data\pdb\oxyl.pdb
   18    18     0     0     0
SMALL
GASTEIGER

@<TRIPOS>ATOM
      1 CG          0.0640   -0.0900   -0.0140 C.ar      1 OXY1        0.0000
      2 HG         -0.4700   -1.0290   -0.0210 H         1 OXY1        0.0000
      3 CD1         1.4640   -0.0810   -0.0100 C.ar      1 OXY1        0.0000
      4 HD1         2.0110   -1.0120   -0.0150 H         1 OXY1        0.0000
      5 CD2        -0.6430    1.1190   -0.0080 C.ar      1 OXY1        0.0000
      6 HD2        -1.7230    1.1080   -0.0110 H         1 OXY1        0.0000
      7 CE1         2.1550    1.1370    0.0000 C.ar      1 OXY1        0.0000
      8 HE1         3.2350    1.1410    0.0030 H         1 OXY1        0.0000
      9 CE2         0.0410    2.3440    0.0010 C.ar      1 OXY1        0.0000
     10 CZ          1.4540    2.3540    0.0070 C.ar      1 OXY1        0.0000
     11 C1          2.2210    3.6470    0.0190 C.3       1 OXY1        0.0000
     12 H11         3.3130    3.4490    0.0670 H         1 OXY1        0.0000
     13 H12         1.9170    4.2390    0.9090 H         1 OXY1        0.0000
     14 H13         1.9900    4.2110   -0.9100 H         1 OXY1        0.0000
     15 C2         -0.7430    3.6270    0.0040 C.3       1 OXY1        0.0000
     16 H21        -0.5170    4.1860    0.9370 H         1 OXY1        0.0000
     17 H22        -1.8330    3.4140   -0.0420 H         1 OXY1        0.0000
     18 H23        -0.4530    4.2310   -0.8820 H         1 OXY1        0.0000
@<TRIPOS>BOND
     1   14   11 1 
     2   18   15 1 
     3   17   15 1 
     4    2    1 1 
     5    4    3 1 
     6    1    3 ar
     7    1    5 ar
     8    6    5 1 
     9    3    7 ar
    10    5    9 ar
    11    7    8 1 
    12    7   10 ar
    13    9   15 1 
    14    9   10 ar
    15   15   16 1 
    16   10   11 1 
    17   11   12 1 
    18   11   13 1 
