@<TRIPOS>MOLECULE
C:\Users\Praveer\PycharmProjects\pdb_to_mol2_converter\data\pdb\pacp.pdb
   20    20     0     0     0
SMALL
GASTEIGER

@<TRIPOS>ATOM
      1 C14        -0.1190    0.1800   -0.0000 C.3       1 PAC1        0.0000
      2 H141       -0.6750   -0.7830   -0.0000 H         1 PAC1        0.0000
      3 H142       -0.4020    0.7540   -0.9070 H         1 PAC1        0.0000
      4 H143       -0.4020    0.7540    0.9070 H         1 PAC1        0.0000
      5 C15         1.3360   -0.0980   -0.0000 C.2       1 PAC1        0.0000
      6 O29         1.7350   -1.2530    0.0000 O.2       1 PAC1        0.0000
      7 N21         2.1250    0.9900   -0.0000 N.am      1 PAC1        0.0000
      8 H211        1.6710    1.8680   -0.0000 H         1 PAC1        0.0000
      9 C22         3.5440    1.0860    0.0000 C.ar      1 PAC1        0.0000
     10 C23         4.0620    2.3930    0.0000 C.ar      1 PAC1        0.0000
     11 H231        3.3900    3.2370   -0.0000 H         1 PAC1        0.0000
     12 C24         5.4470    2.6130    0.0000 C.ar      1 PAC1        0.0000
     13 H241        5.8420    3.6180    0.0000 H         1 PAC1        0.0000
     14 C26         5.8230    0.2200    0.0000 C.ar      1 PAC1        0.0000
     15 H261        6.4940   -0.6260    0.0000 H         1 PAC1        0.0000
     16 C27         4.4350    0.0030    0.0000 C.ar      1 PAC1        0.0000
     17 H271        4.0730   -1.0120    0.0000 H         1 PAC1        0.0000
     18 C25         6.3250    1.5260    0.0000 C.ar      1 PAC1        0.0000
     19 O28         7.7140    1.7550    0.0000 O.3       1 PAC1        0.0000
     20 H281        8.1500    0.9010    0.0000 H         1 PAC1        0.0000
@<TRIPOS>BOND
     1    3    1 1 
     2    1    2 1 
     3    1    5 1 
     4    1    4 1 
     5    5    6 2 
     6    5    7 am
     7    7    8 1 
     8    7    9 1 
     9    9   10 ar
    10    9   16 ar
    11   10   11 1 
    12   10   12 ar
    13   12   13 1 
    14   12   18 ar
    15   14   15 1 
    16   14   16 ar
    17   14   18 ar
    18   16   17 1 
    19   18   19 1 
    20   19   20 1 
