@<TRIPOS>MOLECULE
C:\Users\Praveer\PycharmProjects\pdb_to_mol2_converter\data\pdb\pal.pdb
   49    48     0     0     0
SMALL
GASTEIGER

@<TRIPOS>ATOM
      1 O1         -0.0120   -0.0580    0.1030 O.co2     1 PAL1        0.0000
      2 O2          2.0400   -0.9130    0.0590 O.co2     1 PAL1        0.0000
      3 C1          1.2410    0.0570    0.0540 C.2       1 PAL1        0.0000
      4 C2          1.7950    1.4810   -0.0160 C.3       1 PAL1        0.0000
      5 H2R         1.4290    2.0210    0.8800 H         1 PAL1        0.0000
      6 H2S         1.3630    1.9560   -0.9200 H         1 PAL1        0.0000
      7 C3          3.3390    1.5320   -0.0760 C.3       1 PAL1        0.0000
      8 H3R         3.6830    0.9480   -0.9590 H         1 PAL1        0.0000
      9 H3S         3.7520    1.0350    0.8300 H         1 PAL1        0.0000
     10 C4          3.8740    2.9670   -0.1690 C.3       1 PAL1        0.0000
     11 H4R         3.5230    3.5400    0.7170 H         1 PAL1        0.0000
     12 H4S         3.4450    3.4460   -1.0770 H         1 PAL1        0.0000
     13 C5          5.4060    3.0200   -0.2420 C.3       1 PAL1        0.0000
     14 H5R         5.7420    2.4090   -1.1100 H         1 PAL1        0.0000
     15 H5S         5.8280    2.5570    0.6780 H         1 PAL1        0.0000
     16 C6          5.9490    4.4480   -0.3920 C.3       1 PAL1        0.0000
     17 H6R         5.6220    5.0580    0.4800 H         1 PAL1        0.0000
     18 H6S         5.5110    4.9040   -1.3080 H         1 PAL1        0.0000
     19 C7          7.4800    4.4830   -0.4940 C.3       1 PAL1        0.0000
     20 H7R         7.7960    3.8360   -1.3430 H         1 PAL1        0.0000
     21 H7S         7.9160    4.0560    0.4370 H         1 PAL1        0.0000
     22 C8          8.0330    5.8980   -0.7120 C.3       1 PAL1        0.0000
     23 H8R         7.7290    6.5470    0.1400 H         1 PAL1        0.0000
     24 H8S         7.5840    6.3210   -1.6380 H         1 PAL1        0.0000
     25 C9          9.5620    5.9150   -0.8440 C.3       1 PAL1        0.0000
     26 H9R         9.8600    5.2390   -1.6760 H         1 PAL1        0.0000
     27 H9S        10.0140    5.5180    0.0920 H         1 PAL1        0.0000
     28 C10        10.1210    7.3180   -1.1190 C.3       1 PAL1        0.0000
     29 H10R        9.8370    7.9970   -0.2850 H         1 PAL1        0.0000
     30 H10S        9.6600    7.7150   -2.0520 H         1 PAL1        0.0000
     31 C11        11.6470    7.3170   -1.2760 C.3       1 PAL1        0.0000
     32 H11R       11.9260    6.6170   -2.0960 H         1 PAL1        0.0000
     33 H11S       12.1100    6.9380   -0.3370 H         1 PAL1        0.0000
     34 C12        12.2150    8.7070   -1.5930 C.3       1 PAL1        0.0000
     35 H12R       11.9470    9.4090   -0.7720 H         1 PAL1        0.0000
     36 H12S       11.7470    9.0850   -2.5290 H         1 PAL1        0.0000
     37 C13        13.7400    8.6930   -1.7670 C.3       1 PAL1        0.0000
     38 H13R       14.0060    7.9790   -2.5790 H         1 PAL1        0.0000
     39 H13S       14.2110    8.3260   -0.8270 H         1 PAL1        0.0000
     40 C14        14.3110   10.0750   -2.1110 C.3       1 PAL1        0.0000
     41 H14R       14.0500   10.7900   -1.2990 H         1 PAL1        0.0000
     42 H14S       13.8380   10.4410   -3.0490 H         1 PAL1        0.0000
     43 C15        15.8350   10.0560   -2.2920 C.3       1 PAL1        0.0000
     44 H15R       16.0900    9.3300   -3.0980 H         1 PAL1        0.0000
     45 H15S       16.3030    9.6870   -1.3510 H         1 PAL1        0.0000
     46 C16        16.4240   11.4240   -2.6450 C.3       1 PAL1        0.0000
     47 H16R       16.2030   12.1610   -1.8430 H         1 PAL1        0.0000
     48 H16S       15.9900   11.8010   -3.5960 H         1 PAL1        0.0000
     49 H16T       17.5260   11.3560   -2.7650 H         1 PAL1        0.0000
@<TRIPOS>BOND
     1   48   46 1 
     2   44   43 1 
     3   42   40 1 
     4   49   46 1 
     5   46   43 1 
     6   46   47 1 
     7   38   37 1 
     8   36   34 1 
     9   43   40 1 
    10   43   45 1 
    11   40   37 1 
    12   40   41 1 
    13   32   31 1 
    14   30   28 1 
    15   37   34 1 
    16   37   39 1 
    17   26   25 1 
    18   24   22 1 
    19   34   31 1 
    20   34   35 1 
    21   20   19 1 
    22   18   16 1 
    23   31   28 1 
    24   31   33 1 
    25   28   25 1 
    26   28   29 1 
    27   14   13 1 
    28   12   10 1 
    29    8    7 1 
    30    6    4 1 
    31   25   22 1 
    32   25   27 1 
    33   22   19 1 
    34   22   23 1 
    35   19   16 1 
    36   19   21 1 
    37   16   13 1 
    38   16   17 1 
    39   13   10 1 
    40   13   15 1 
    41   10    7 1 
    42   10   11 1 
    43    7    4 1 
    44    7    9 1 
    45    4    3 1 
    46    4    5 1 
    47    3    2 ar
    48    3    1 ar
