@<TRIPOS>MOLECULE
C:\Users\Praveer\PycharmProjects\pdb_to_mol2_converter\data\pdb\pald.pdb
   10     9     0     0     0
SMALL
GASTEIGER

@<TRIPOS>ATOM
      1 O          -0.0020   -0.0140    0.0010 O.2       1 PAL1        0.0000
      2 C           1.2120   -0.0110    0.0000 C.2       1 PAL1        0.0000
      3 CB          2.0970    1.2110    0.0010 C.3       1 PAL1        0.0000
      4 HB1         2.7510    1.1680   -0.8990 H         1 PAL1        0.0000
      5 HB2         2.7510    1.1670    0.9000 H         1 PAL1        0.0000
      6 HA          1.7340   -0.9910   -0.0010 H         1 PAL1        0.0000
      7 CG          1.3290    2.5420    0.0020 C.3       1 PAL1        0.0000
      8 HG1         0.6800    2.6130    0.9010 H         1 PAL1        0.0000
      9 HG2         0.6790    2.6140   -0.8980 H         1 PAL1        0.0000
     10 HG3         2.0310    3.4030    0.0020 H         1 PAL1        0.0000
@<TRIPOS>BOND
     1    4    3 1 
     2    9    7 1 
     3    6    2 1 
     4    2    1 2 
     5    2    3 1 
     6    3    7 1 
     7    3    5 1 
     8    7   10 1 
     9    7    8 1 
