@<TRIPOS>MOLECULE
C:\Users\Praveer\PycharmProjects\pdb_to_mol2_converter\data\pdb\palipd.pdb
  273   274     0     0     0
SMALL
GASTEIGER

@<TRIPOS>ATOM
      1 HB6S       -7.9880    2.3170    0.9380 H         1 PAL1        0.0000
      2 OB6        -6.8450    0.7890    1.8040 O.3       1 PAL1        0.0000
      3 HOB6       -6.0420    0.3160    1.5640 H         1 PAL1        0.0000
      4 CB6        -7.1220    1.6570    0.6960 C.3       1 PAL1        0.0000
      5 HB6R       -7.4110    1.0530   -0.1940 H         1 PAL1        0.0000
      6 CB5        -5.9090    2.4930    0.3480 C.3       1 PAL1        0.0000
      7 OB5        -4.7760    1.6190    0.1930 O.3       1 PAL1        0.0000
      8 HB5        -5.7380    3.1990    1.1970 H         1 PAL1        0.0000
      9 CB1        -3.5690    2.3650    0.0340 C.3       1 PAL1        0.0000
     10 HB1        -3.4070    3.0240    0.9170 H         1 PAL1        0.0000
     11 OA6        -2.4640    1.5250   -0.1510 O.3       1 PAL1        0.0000
     12 CA6        -2.1530    0.7260    0.9880 C.3       1 PAL1        0.0000
     13 HA6R       -2.5560   -0.3020    0.8430 H         1 PAL1        0.0000
     14 HA6S       -2.6060    1.1420    1.9160 H         1 PAL1        0.0000
     15 CB4        -6.0550    3.2740   -0.9410 C.3       1 PAL1        0.0000
     16 HB4        -6.1660    2.5410   -1.7800 H         1 PAL1        0.0000
     17 OB4        -7.1900    4.1140   -0.7820 O.3       1 PAL1        0.0000
     18 PB         -8.4520    4.1180   -1.8550 P.3       1 PAL1        0.0000
     19 OPB4       -8.5120    5.5570   -2.3490 O.3       1 PAL1        0.0000
     20 OPB3       -9.6480    3.6820   -1.0220 O.3       1 PAL1        0.0000
     21 OPB2       -8.0930    3.1380   -2.9650 O.2       1 PAL1        0.0000
     22 CB3        -4.8240    4.0980   -1.2100 C.3       1 PAL1        0.0000
     23 OB3        -4.9460    4.6850   -2.4980 O.3       1 PAL1        0.0000
     24 HB3        -4.6820    4.8580   -0.4010 H         1 PAL1        0.0000
     25 C71        -5.5280    5.8930   -2.5490 C.2       1 PAL1        0.0000
     26 O71        -5.3010    6.7810   -1.7400 O.2       1 PAL1        0.0000
     27 C72        -5.7630    6.1420   -4.0250 C.3       1 PAL1        0.0000
     28 H72R       -6.7870    5.7540   -4.2230 H         1 PAL1        0.0000
     29 H72S       -5.0470    5.5580   -4.6400 H         1 PAL1        0.0000
     30 CB2        -3.6080    3.2040   -1.2260 C.3       1 PAL1        0.0000
     31 HB2        -3.7200    2.4960   -2.0870 H         1 PAL1        0.0000
     32 NB2        -2.3710    3.9580   -1.3840 N.am      1 PAL1        0.0000
     33 HNB2       -2.0010    4.3330   -0.5460 H         1 PAL1        0.0000
     34 CA4         0.0130    2.0600    1.1570 C.3       1 PAL1        0.0000
     35 HA4        -0.2790    2.6400    0.2450 H         1 PAL1        0.0000
     36 OA4        -0.4160    2.7660    2.3150 O.3       1 PAL1        0.0000
     37 HOA4        0.3650    3.2760    2.6020 H         1 PAL1        0.0000
     38 CA5        -0.6410    0.6880    1.0850 C.3       1 PAL1        0.0000
     39 HA5        -0.3720    0.0640    1.9610 H         1 PAL1        0.0000
     40 OA5        -0.1450    0.0180   -0.0720 O.3       1 PAL1        0.0000
     41 CA1         1.2650   -0.2230   -0.0300 C.3       1 PAL1        0.0000
     42 HA1         1.4520   -0.7400   -0.9990 H         1 PAL1        0.0000
     43 OA1         1.6360   -1.0280    1.0750 O.3       1 PAL1        0.0000
     44 OPA2        2.7700   -2.9440    2.1630 O.3       1 PAL1        0.0000
     45 OPA3        2.4880   -2.8900   -0.3680 O.2       1 PAL1        0.0000
     46 OPA4        4.1390   -1.3060    0.7240 O.3       1 PAL1        0.0000
     47 PA          2.8510   -2.1240    0.8950 P.3       1 PAL1        0.0000
     48 CA3         1.5190    1.9420    1.1420 C.3       1 PAL1        0.0000
     49 HA3         1.8370    1.4210    2.0810 H         1 PAL1        0.0000
     50 OA3         2.1270    3.2340    1.0960 O.3       1 PAL1        0.0000
     51 HOA3        2.8560    3.1740    0.4520 H         1 PAL1        0.0000
     52 CA2         1.9350    1.1210   -0.0530 C.3       1 PAL1        0.0000
     53 HA2         1.4920    1.6120   -0.9610 H         1 PAL1        0.0000
     54 NA2         3.3570    0.9820   -0.2550 N.am      1 PAL1        0.0000
     55 HNA2        3.7210    0.0900    0.1000 H         1 PAL1        0.0000
     56 C73        -5.6980    7.6220   -4.4080 C.3       1 PAL1        0.0000
     57 H73R       -6.4390    8.2160   -3.8150 H         1 PAL1        0.0000
     58 O73        -5.9830    7.5980   -5.8040 O.3       1 PAL1        0.0000
     59 C81        -7.1520    8.0620   -6.1860 C.2       1 PAL1        0.0000
     60 O81        -7.9020    8.7830   -5.5430 O.2       1 PAL1        0.0000
     61 C82        -7.3680    7.7290   -7.6650 C.3       1 PAL1        0.0000
     62 H82R       -7.9360    8.5850   -8.0780 H         1 PAL1        0.0000
     63 H82S       -8.0120    6.8290   -7.7280 H         1 PAL1        0.0000
     64 C83        -6.0790    7.5240   -8.4990 C.3       1 PAL1        0.0000
     65 H83R       -5.9070    6.4330   -8.6330 H         1 PAL1        0.0000
     66 H83S       -5.1890    7.9500   -7.9840 H         1 PAL1        0.0000
     67 C84        -6.1480    8.2440   -9.8490 C.3       1 PAL1        0.0000
     68 H84R       -6.3000    9.3280   -9.6380 H         1 PAL1        0.0000
     69 H84S       -7.0220    7.8880  -10.4340 H         1 PAL1        0.0000
     70 C85        -4.8670    8.0950  -10.6830 C.3       1 PAL1        0.0000
     71 H85R       -5.0080    7.2980  -11.4450 H         1 PAL1        0.0000
     72 H85S       -4.0280    7.7730  -10.0280 H         1 PAL1        0.0000
     73 C86        -4.4770    9.4140  -11.3620 C.3       1 PAL1        0.0000
     74 H86R       -4.3090   10.1850  -10.5720 H         1 PAL1        0.0000
     75 H86S       -5.3280    9.7560  -11.9950 H         1 PAL1        0.0000
     76 C87        -3.2070    9.3120  -12.2180 C.3       1 PAL1        0.0000
     77 H87R       -3.2750    8.4410  -12.9100 H         1 PAL1        0.0000
     78 H87S       -2.3390    9.1430  -11.5400 H         1 PAL1        0.0000
     79 C88        -2.9770   10.5880  -13.0400 C.3       1 PAL1        0.0000
     80 H88R       -3.3240   11.4710  -12.4540 H         1 PAL1        0.0000
     81 H88S       -3.5960   10.5340  -13.9630 H         1 PAL1        0.0000
     82 C89        -1.5120   10.8460  -13.4090 C.3       1 PAL1        0.0000
     83 H89R       -0.9440   11.0830  -12.4830 H         1 PAL1        0.0000
     84 H89S       -1.4760   11.7470  -14.0620 H         1 PAL1        0.0000
     85 C810       -0.8240    9.6740  -14.1170 C.3       1 PAL1        0.0000
     86 H810       -1.4580    9.3400  -14.9680 H         1 PAL1        0.0000
     87 H810       -0.7220    8.8190  -13.4130 H         1 PAL1        0.0000
     88 C811        0.5630   10.0550  -14.6480 C.3       1 PAL1        0.0000
     89 H811        1.1870   10.4370  -13.8080 H         1 PAL1        0.0000
     90 H811        0.4430   10.8790  -15.3880 H         1 PAL1        0.0000
     91 C812        1.2730    8.8770  -15.3270 C.3       1 PAL1        0.0000
     92 H812        0.6170    8.5010  -16.1470 H         1 PAL1        0.0000
     93 H812        1.4100    8.0460  -14.5990 H         1 PAL1        0.0000
     94 C813        2.6360    9.2570  -15.9220 C.3       1 PAL1        0.0000
     95 H813        3.3870    9.3470  -15.1070 H         1 PAL1        0.0000
     96 H813        2.5570   10.2500  -16.4180 H         1 PAL1        0.0000
     97 C814        3.1030    8.2440  -16.9740 C.3       1 PAL1        0.0000
     98 H814        2.4120    8.3120  -17.8450 H         1 PAL1        0.0000
     99 H814        3.0230    7.2120  -16.5650 H         1 PAL1        0.0000
    100 C815        4.5340    8.4920  -17.4640 C.3       1 PAL1        0.0000
    101 H815        5.2430    7.9950  -16.7620 H         1 PAL1        0.0000
    102 H815        4.7500    9.5850  -17.4370 H         1 PAL1        0.0000
    103 C816        4.7720    7.9920  -18.8910 C.3       1 PAL1        0.0000
    104 H816        4.1600    8.5840  -19.6080 H         1 PAL1        0.0000
    105 H816        4.4840    6.9230  -18.9890 H         1 PAL1        0.0000
    106 H816        5.8420    8.1030  -19.1680 H         1 PAL1        0.0000
    107 C74        -4.3020    8.2730   -4.2260 C.3       1 PAL1        0.0000
    108 H74R       -3.5440    7.6850   -4.7840 H         1 PAL1        0.0000
    109 H74S       -4.0320    8.2340   -3.1490 H         1 PAL1        0.0000
    110 C75        -4.2530    9.7530   -4.6580 C.3       1 PAL1        0.0000
    111 H75R       -3.7180   10.3550   -3.8890 H         1 PAL1        0.0000
    112 H75S       -5.3000   10.1250   -4.6960 H         1 PAL1        0.0000
    113 C76        -3.5760    9.9840   -6.0180 C.3       1 PAL1        0.0000
    114 H76R       -3.8000    9.1340   -6.6980 H         1 PAL1        0.0000
    115 H76S       -2.4770    9.9910   -5.8550 H         1 PAL1        0.0000
    116 C77        -4.0120   11.2930   -6.6990 C.3       1 PAL1        0.0000
    117 H77R       -4.5800   11.9160   -5.9720 H         1 PAL1        0.0000
    118 H77S       -4.7050   11.0440   -7.5360 H         1 PAL1        0.0000
    119 C78        -2.8380   12.1280   -7.2360 C.3       1 PAL1        0.0000
    120 H78R       -2.2300   11.4910   -7.9180 H         1 PAL1        0.0000
    121 H78S       -2.1930   12.4420   -6.3830 H         1 PAL1        0.0000
    122 C79        -3.3030   13.3710   -8.0090 C.3       1 PAL1        0.0000
    123 H79R       -3.8540   14.0460   -7.3140 H         1 PAL1        0.0000
    124 H79S       -4.0200   13.0440   -8.7960 H         1 PAL1        0.0000
    125 C710       -2.1630   14.1440   -8.6800 C.3       1 PAL1        0.0000
    126 H710       -1.6380   13.4930   -9.4120 H         1 PAL1        0.0000
    127 H710       -1.4240   14.4920   -7.9270 H         1 PAL1        0.0000
    128 H710       -2.5550   15.0310   -9.2240 H         1 PAL1        0.0000
    129 C51        -1.6150    4.0150   -2.4890 C.2       1 PAL1        0.0000
    130 O51        -1.9760    3.6360   -3.5940 O.2       1 PAL1        0.0000
    131 C52        -0.2170    4.5310   -2.2620 C.3       1 PAL1        0.0000
    132 H52R        0.4000    3.6860   -1.8840 H         1 PAL1        0.0000
    133 H52S       -0.2310    5.3300   -1.4960 H         1 PAL1        0.0000
    134 C53         0.4060    5.0650   -3.5590 C.3       1 PAL1        0.0000
    135 H53R        0.3040    4.2860   -4.3560 H         1 PAL1        0.0000
    136 O53         1.7720    5.3190   -3.2160 O.3       1 PAL1        0.0000
    137 C61         2.6750    4.9270   -4.1070 C.2       1 PAL1        0.0000
    138 O61         2.4340    4.5450   -5.2440 O.2       1 PAL1        0.0000
    139 C62         4.0620    5.2880   -3.5900 C.3       1 PAL1        0.0000
    140 H62R        4.8070    4.8120   -4.2560 H         1 PAL1        0.0000
    141 H62S        4.1580    4.8550   -2.5740 H         1 PAL1        0.0000
    142 C63         4.3070    6.8070   -3.5030 C.3       1 PAL1        0.0000
    143 H63R        5.2390    6.9760   -2.9150 H         1 PAL1        0.0000
    144 H63S        3.4770    7.3010   -2.9510 H         1 PAL1        0.0000
    145 C64         4.4970    7.4510   -4.8780 C.3       1 PAL1        0.0000
    146 H64R        3.5970    7.2860   -5.5090 H         1 PAL1        0.0000
    147 H64S        5.3510    6.9610   -5.3950 H         1 PAL1        0.0000
    148 C65         4.7660    8.9540   -4.7690 C.3       1 PAL1        0.0000
    149 H65R        5.6610    9.1150   -4.1240 H         1 PAL1        0.0000
    150 H65S        3.8990    9.4440   -4.2750 H         1 PAL1        0.0000
    151 C66         5.0020    9.5970   -6.1370 C.3       1 PAL1        0.0000
    152 H66R        4.1380    9.3910   -6.8080 H         1 PAL1        0.0000
    153 H66S        5.8990    9.1170   -6.5880 H         1 PAL1        0.0000
    154 C67         5.2030   11.1150   -6.0530 C.3       1 PAL1        0.0000
    155 H67R        5.8060   11.3610   -5.1500 H         1 PAL1        0.0000
    156 H67S        4.2070   11.6050   -5.9470 H         1 PAL1        0.0000
    157 C68         5.9390   11.6620   -7.2800 C.3       1 PAL1        0.0000
    158 H68R        5.7940   10.9590   -8.1310 H         1 PAL1        0.0000
    159 H68S        7.0280   11.7030   -7.0490 H         1 PAL1        0.0000
    160 C69         5.4610   13.0490   -7.7180 C.3       1 PAL1        0.0000
    161 H69R        5.5350   13.7430   -6.8520 H         1 PAL1        0.0000
    162 H69S        4.3910   12.9890   -8.0240 H         1 PAL1        0.0000
    163 C610        6.2960   13.5950   -8.8830 C.3       1 PAL1        0.0000
    164 H610        6.1450   12.9520   -9.7780 H         1 PAL1        0.0000
    165 H610        7.3740   13.5400   -8.6120 H         1 PAL1        0.0000
    166 C611        5.9570   15.0500   -9.2200 C.3       1 PAL1        0.0000
    167 H611        6.1380   15.6770   -8.3170 H         1 PAL1        0.0000
    168 H611        4.8720   15.1180   -9.4610 H         1 PAL1        0.0000
    169 C612        6.7740   15.6080  -10.3870 C.3       1 PAL1        0.0000
    170 H612        6.5510   15.0460  -11.3190 H         1 PAL1        0.0000
    171 H612        7.8630   15.5210  -10.1770 H         1 PAL1        0.0000
    172 H612        6.5320   16.6800  -10.5550 H         1 PAL1        0.0000
    173 C54        -0.2520    6.3850   -4.0440 C.3       1 PAL1        0.0000
    174 H54R       -0.3130    7.0860   -3.1840 H         1 PAL1        0.0000
    175 H54S       -1.2890    6.1640   -4.3870 H         1 PAL1        0.0000
    176 C55         0.5210    7.0590   -5.1910 C.3       1 PAL1        0.0000
    177 H55R        0.6310    6.3260   -6.0230 H         1 PAL1        0.0000
    178 H55S        1.5380    7.3220   -4.8250 H         1 PAL1        0.0000
    179 C56        -0.0980    8.3440   -5.7480 C.3       1 PAL1        0.0000
    180 H56R       -0.0320    9.1390   -4.9740 H         1 PAL1        0.0000
    181 H56S       -1.1730    8.1710   -5.9720 H         1 PAL1        0.0000
    182 C57         0.6240    8.7890   -7.0310 C.3       1 PAL1        0.0000
    183 H57R        0.1100    8.3140   -7.8960 H         1 PAL1        0.0000
    184 H57S        1.6710    8.4070   -7.0210 H         1 PAL1        0.0000
    185 C58         0.6890   10.3080   -7.2340 C.3       1 PAL1        0.0000
    186 H58R        1.4440   10.7360   -6.5370 H         1 PAL1        0.0000
    187 H58S       -0.2980   10.7550   -6.9850 H         1 PAL1        0.0000
    188 C59         1.0530   10.6650   -8.6830 C.3       1 PAL1        0.0000
    189 H59R        0.2360   10.2950   -9.3450 H         1 PAL1        0.0000
    190 H59S        1.9880   10.1300   -8.9670 H         1 PAL1        0.0000
    191 C510        1.2440   12.1670   -8.9300 C.3       1 PAL1        0.0000
    192 H510        2.0750   12.5500   -8.2980 H         1 PAL1        0.0000
    193 H510        0.3190   12.7050   -8.6290 H         1 PAL1        0.0000
    194 C511        1.5410   12.4740  -10.4050 C.3       1 PAL1        0.0000
    195 H511        0.7800   11.9620  -11.0380 H         1 PAL1        0.0000
    196 H511        2.5340   12.0410  -10.6670 H         1 PAL1        0.0000
    197 C512        1.5300   13.9670  -10.7410 C.3       1 PAL1        0.0000
    198 H512        2.2690   14.5160  -10.1200 H         1 PAL1        0.0000
    199 H512        0.5240   14.3990  -10.5550 H         1 PAL1        0.0000
    200 H512        1.7790   14.1270  -11.8120 H         1 PAL1        0.0000
    201 C11         4.0620    1.6780   -1.1260 C.2       1 PAL1        0.0000
    202 O11         3.8720    2.8790   -1.2580 O.2       1 PAL1        0.0000
    203 C12         5.0320    0.8980   -1.9890 C.3       1 PAL1        0.0000
    204 H12R        4.3990    0.2330   -2.6120 H         1 PAL1        0.0000
    205 H12S        5.6760    0.2600   -1.3530 H         1 PAL1        0.0000
    206 C13         5.8480    1.8010   -2.9310 C.3       1 PAL1        0.0000
    207 H13R        5.2720    2.7320   -3.1540 H         1 PAL1        0.0000
    208 O13         6.1530    1.0250   -4.1040 O.3       1 PAL1        0.0000
    209 C21         5.6490    1.4770   -5.2540 C.2       1 PAL1        0.0000
    210 O21         4.9140    2.4540   -5.3650 O.2       1 PAL1        0.0000
    211 C22         6.0140    0.5150   -6.4450 C.3       1 PAL1        0.0000
    212 H22S        6.3460   -0.4520   -6.0000 H         1 PAL1        0.0000
    213 O22         4.9560    0.2510   -7.3780 O.3       1 PAL1        0.0000
    214 HO22        4.3550    0.9970   -7.5400 H         1 PAL1        0.0000
    215 C23         7.1940    1.1010   -7.2770 C.3       1 PAL1        0.0000
    216 H23R        7.5300    0.3100   -7.9860 H         1 PAL1        0.0000
    217 H23S        8.0440    1.3290   -6.6010 H         1 PAL1        0.0000
    218 C24         6.8790    2.3590   -8.1160 C.3       1 PAL1        0.0000
    219 H24R        6.5920    3.2040   -7.4540 H         1 PAL1        0.0000
    220 H24S        6.0210    2.1470   -8.7940 H         1 PAL1        0.0000
    221 C25         8.0810    2.7720   -8.9820 C.3       1 PAL1        0.0000
    222 H25R        8.4640    1.8640   -9.5010 H         1 PAL1        0.0000
    223 H25S        8.8900    3.1570   -8.3250 H         1 PAL1        0.0000
    224 C26         7.7510    3.8190  -10.0570 C.3       1 PAL1        0.0000
    225 H26R        7.3160    4.7250   -9.5820 H         1 PAL1        0.0000
    226 H26S        6.9790    3.4020  -10.7400 H         1 PAL1        0.0000
    227 C27         8.9840    4.2240  -10.8820 C.3       1 PAL1        0.0000
    228 H27R        9.5780    3.3180  -11.1350 H         1 PAL1        0.0000
    229 H27S        9.6210    4.8770  -10.2450 H         1 PAL1        0.0000
    230 C28         8.6340    4.9600  -12.1860 C.3       1 PAL1        0.0000
    231 H28R        7.6530    5.4760  -12.0630 H         1 PAL1        0.0000
    232 H28S        8.5200    4.2050  -13.0010 H         1 PAL1        0.0000
    233 C29         9.6850    6.0100  -12.5850 C.3       1 PAL1        0.0000
    234 H29R       10.6910    5.5350  -12.6210 H         1 PAL1        0.0000
    235 H29S        9.7150    6.8090  -11.8080 H         1 PAL1        0.0000
    236 C210        9.3920    6.6560  -13.9470 C.3       1 PAL1        0.0000
    237 H210        8.3940    7.1470  -13.9120 H         1 PAL1        0.0000
    238 H210        9.3480    5.8580  -14.7210 H         1 PAL1        0.0000
    239 C211       10.4460    7.6920  -14.3590 C.3       1 PAL1        0.0000
    240 H211       11.4390    7.1890  -14.4030 H         1 PAL1        0.0000
    241 H211       10.5050    8.4800  -13.5740 H         1 PAL1        0.0000
    242 C212       10.1600    8.3520  -15.7110 C.3       1 PAL1        0.0000
    243 H212        9.2010    8.9130  -15.6760 H         1 PAL1        0.0000
    244 H212       10.0870    7.5840  -16.5110 H         1 PAL1        0.0000
    245 H212       10.9720    9.0620  -15.9780 H         1 PAL1        0.0000
    246 C14         7.1870    2.2040   -2.2750 C.3       1 PAL1        0.0000
    247 H14R        7.6550    1.2800   -1.8750 H         1 PAL1        0.0000
    248 H14S        6.9780    2.8620   -1.4030 H         1 PAL1        0.0000
    249 C15         8.2050    2.8830   -3.2080 C.3       1 PAL1        0.0000
    250 H15R        8.5530    2.1700   -3.9900 H         1 PAL1        0.0000
    251 H15S        9.0960    3.1440   -2.5940 H         1 PAL1        0.0000
    252 C16         7.6700    4.1570   -3.8720 C.3       1 PAL1        0.0000
    253 H16R        7.0660    4.7350   -3.1370 H         1 PAL1        0.0000
    254 H16S        6.9950    3.8830   -4.7140 H         1 PAL1        0.0000
    255 C17         8.8000    5.0540   -4.3890 C.3       1 PAL1        0.0000
    256 H17R        9.4870    4.4470   -5.0190 H         1 PAL1        0.0000
    257 H17S        9.3830    5.4400   -3.5200 H         1 PAL1        0.0000
    258 C18         8.2840    6.2430   -5.2060 C.3       1 PAL1        0.0000
    259 H18R        7.5360    6.8060   -4.6040 H         1 PAL1        0.0000
    260 H18S        7.7700    5.8580   -6.1140 H         1 PAL1        0.0000
    261 C19         9.4170    7.1900   -5.6190 C.3       1 PAL1        0.0000
    262 H19R       10.1510    6.6350   -6.2440 H         1 PAL1        0.0000
    263 H19S        9.9460    7.5360   -4.7040 H         1 PAL1        0.0000
    264 C110        8.9310    8.4180   -6.3950 C.3       1 PAL1        0.0000
    265 H110        8.2110    8.9750   -5.7550 H         1 PAL1        0.0000
    266 H110        8.3770    8.0810   -7.2990 H         1 PAL1        0.0000
    267 C111       10.0960    9.3350   -6.8040 C.3       1 PAL1        0.0000
    268 H111       10.7830    8.7670   -7.4730 H         1 PAL1        0.0000
    269 H111       10.6710    9.6110   -5.8900 H         1 PAL1        0.0000
    270 C112        9.6620   10.6180   -7.5130 C.3       1 PAL1        0.0000
    271 H112        9.0780   11.2540   -6.8160 H         1 PAL1        0.0000
    272 H112        9.0170   10.3750   -8.3840 H         1 PAL1        0.0000
    273 H112       10.5420   11.2000   -7.8670 H         1 PAL1        0.0000
@<TRIPOS>BOND
     1  104  103 1 
     2  106  103 1 
     3  105  103 1 
     4  103  100 1 
     5   98   97 1 
     6  100  102 1 
     7  100   97 1 
     8  100  101 1 
     9   97   99 1 
    10   97   94 1 
    11  244  242 1 
    12   96   94 1 
    13   92   91 1 
    14  245  242 1 
    15   94   91 1 
    16   94   95 1 
    17  242  243 1 
    18  242  239 1 
    19   90   88 1 
    20   91   88 1 
    21   91   93 1 
    22   86   85 1 
    23  238  236 1 
    24   88   85 1 
    25   88   89 1 
    26  240  239 1 
    27  239  236 1 
    28  239  241 1 
    29   85   87 1 
    30   85   82 1 
    31   84   82 1 
    32   81   79 1 
    33  236  237 1 
    34  236  233 1 
    35   82   79 1 
    36   82   83 1 
    37   79   80 1 
    38   79   76 1 
    39  232  230 1 
    40   77   76 1 
    41  234  233 1 
    42  233  230 1 
    43  233  235 1 
    44   76   78 1 
    45   76   73 1 
    46  230  231 1 
    47  230  227 1 
    48   75   73 1 
    49  200  197 1 
    50   71   70 1 
    51   73   70 1 
    52   73   74 1 
    53  170  169 1 
    54  228  227 1 
    55  195  194 1 
    56  227  229 1 
    57  227  224 1 
    58  197  199 1 
    59  197  194 1 
    60  197  198 1 
    61  226  224 1 
    62   70   72 1 
    63   70   67 1 
    64  196  194 1 
    65  172  169 1 
    66   69   67 1 
    67  194  191 1 
    68  169  171 1 
    69  169  166 1 
    70  224  225 1 
    71  224  221 1 
    72   67   68 1 
    73   67   64 1 
    74  164  163 1 
    75  222  221 1 
    76  168  166 1 
    77  126  125 1 
    78  189  188 1 
    79  128  125 1 
    80  166  163 1 
    81  166  167 1 
    82  221  223 1 
    83  221  218 1 
    84  190  188 1 
    85  191  188 1 
    86  191  193 1 
    87  191  192 1 
    88  163  165 1 
    89  163  160 1 
    90  124  122 1 
    91  220  218 1 
    92  188  185 1 
    93  125  122 1 
    94  125  127 1 
    95   65   64 1 
    96   64   66 1 
    97   64   61 1 
    98  272  270 1 
    99  158  157 1 
   100  218  219 1 
   101  218  215 1 
   102   62   61 1 
   103  162  160 1 
   104  122  123 1 
   105  122  119 1 
   106  216  215 1 
   107  120  119 1 
   108  183  182 1 
   109  273  270 1 
   110   63   61 1 
   111  160  157 1 
   112  160  161 1 
   113   61   59 1 
   114  214  213 1 
   115  118  116 1 
   116  270  271 1 
   117  270  267 1 
   118  268  267 1 
   119  213  211 1 
   120  266  264 1 
   121  157  159 1 
   122  157  154 1 
   123  215  217 1 
   124  215  211 1 
   125  119  116 1 
   126  119  121 1 
   127  185  182 1 
   128  185  187 1 
   129  185  186 1 
   130  182  184 1 
   131  182  179 1 
   132  152  151 1 
   133  267  264 1 
   134  267  269 1 
   135  116  113 1 
   136  116  117 1 
   137  114  113 1 
   138  153  151 1 
   139  211  212 1 
   140  211  209 1 
   141  264  265 1 
   142  264  261 1 
   143  262  261 1 
   144   59   58 1 
   145   59   60 2 
   146  151  154 1 
   147  151  148 1 
   148  260  258 1 
   149  154  156 1 
   150  154  155 1 
   151  177  176 1 
   152  113  115 1 
   153  113  110 1 
   154  181  179 1 
   155   58   56 1 
   156  179  176 1 
   157  179  180 1 
   158  261  258 1 
   159  261  263 1 
   160  146  145 1 
   161  147  145 1 
   162  210  209 2 
   163  209  208 1 
   164  138  137 2 
   165  258  259 1 
   166  258  255 1 
   167  176  178 1 
   168  176  173 1 
   169  256  255 1 
   170  145  148 1 
   171  145  142 1 
   172  108  107 1 
   173  148  150 1 
   174  148  149 1 
   175  254  252 1 
   176  112  110 1 
   177  110  107 1 
   178  110  111 1 
   179   29   27 1 
   180   56  107 1 
   181   56   27 1 
   182   56   57 1 
   183  255  252 1 
   184  255  257 1 
   185  175  173 1 
   186  135  134 1 
   187  140  139 1 
   188  107  109 1 
   189   28   27 1 
   190  137  139 1 
   191  137  136 1 
   192  208  206 1 
   193  173  134 1 
   194  173  174 1 
   195   27   25 1 
   196  250  249 1 
   197  252  249 1 
   198  252  253 1 
   199  130  129 2 
   200  139  142 1 
   201  139  141 1 
   202  134  136 1 
   203  134  131 1 
   204  142  144 1 
   205  142  143 1 
   206  249  251 1 
   207  249  246 1 
   208  207  206 1 
   209   21   18 2 
   210  206  246 1 
   211  206  203 1 
   212  204  203 1 
   213   25   23 1 
   214   25   26 2 
   215   23   22 1 
   216  129  131 1 
   217  129   32 am
   218   19   18 1 
   219  246  247 1 
   220  246  248 1 
   221  131  132 1 
   222  131  133 1 
   223   31   30 1 
   224  203  205 1 
   225  203  201 1 
   226   18   20 1 
   227   18   17 1 
   228   16   15 1 
   229   32   30 1 
   230   32   33 1 
   231  202  201 2 
   232   30   22 1 
   233   30    9 1 
   234   22   15 1 
   235   22   24 1 
   236  201   54 am
   237   42   41 1 
   238   53   52 1 
   239   15   17 1 
   240   15    6 1 
   241   45   47 2 
   242   54   52 1 
   243   54   55 1 
   244    5    4 1 
   245   11    9 1 
   246   11   12 1 
   247   40   41 1 
   248   40   38 1 
   249   52   41 1 
   250   52   48 1 
   251   41   43 1 
   252    9    7 1 
   253    9   10 1 
   254    7    6 1 
   255   35   34 1 
   256    6    4 1 
   257    6    8 1 
   258   51   50 1 
   259    4    1 1 
   260    4    2 1 
   261   46   47 1 
   262   13   12 1 
   263   47   43 1 
   264   47   44 1 
   265   12   38 1 
   266   12   14 1 
   267   38   34 1 
   268   38   39 1 
   269   50   48 1 
   270   48   34 1 
   271   48   49 1 
   272   34   36 1 
   273    3    2 1 
   274   36   37 1 
