@<TRIPOS>MOLECULE
C:\Users\Praveer\PycharmProjects\pdb_to_mol2_converter\data\pdb\palipc.pdb
  303   304     0     0     0
SMALL
GASTEIGER

@<TRIPOS>ATOM
      1 HB6S       -7.9960    2.2050    0.8610 H         1 PAL1        0.0000
      2 OB6        -6.7960    0.7450    1.7580 O.3       1 PAL1        0.0000
      3 HOB6       -5.9390    0.3540    1.5570 H         1 PAL1        0.0000
      4 CB6        -7.0810    1.6070    0.6490 C.3       1 PAL1        0.0000
      5 HB6R       -7.3010    0.9910   -0.2510 H         1 PAL1        0.0000
      6 CB5        -5.9010    2.5120    0.3580 C.3       1 PAL1        0.0000
      7 OB5        -4.7260    1.6920    0.2190 O.3       1 PAL1        0.0000
      8 HB5        -5.7760    3.2070    1.2220 H         1 PAL1        0.0000
      9 CB1        -3.5440    2.4820    0.0810 C.3       1 PAL1        0.0000
     10 HB1        -3.4060    3.1400    0.9700 H         1 PAL1        0.0000
     11 OA6        -2.4120    1.6800   -0.0960 O.3       1 PAL1        0.0000
     12 CA6        -2.1320    0.8540    1.0320 C.3       1 PAL1        0.0000
     13 HA6R       -2.5830   -0.1520    0.8760 H         1 PAL1        0.0000
     14 HA6S       -2.5510    1.3010    1.9620 H         1 PAL1        0.0000
     15 CB4        -6.0530    3.3170   -0.9160 C.3       1 PAL1        0.0000
     16 HB4        -6.1390    2.5880   -1.7610 H         1 PAL1        0.0000
     17 OB4        -7.2130    4.1250   -0.7620 O.3       1 PAL1        0.0000
     18 PB         -8.4490    4.1300   -1.8660 P.3       1 PAL1        0.0000
     19 OPB4       -8.5080    5.5780   -2.3440 O.3       1 PAL1        0.0000
     20 OPB3       -9.6660    3.6810   -1.0740 O.3       1 PAL1        0.0000
     21 OPB2       -8.0540    3.1660   -2.9760 O.2       1 PAL1        0.0000
     22 CB3        -4.8360    4.1760   -1.1510 C.3       1 PAL1        0.0000
     23 OB3        -4.9310    4.7620   -2.4370 O.3       1 PAL1        0.0000
     24 HB3        -4.7290    4.9290   -0.3310 H         1 PAL1        0.0000
     25 C71        -5.5190    5.9600   -2.5040 C.2       1 PAL1        0.0000
     26 O71        -5.2970    6.8580   -1.7020 O.2       1 PAL1        0.0000
     27 C72        -5.7330    6.1760   -3.9920 C.3       1 PAL1        0.0000
     28 H72R       -6.7440    5.7650   -4.2140 H         1 PAL1        0.0000
     29 H72S       -4.9860    5.5920   -4.5690 H         1 PAL1        0.0000
     30 CB2        -3.6010    3.3170   -1.1740 C.3       1 PAL1        0.0000
     31 HB2        -3.7180    2.6010   -2.0310 H         1 PAL1        0.0000
     32 NB2        -2.3740    4.0890   -1.3480 N.am      1 PAL1        0.0000
     33 HNB2       -2.0130    4.5080   -0.5250 H         1 PAL1        0.0000
     34 CA4         0.0390    2.1170    1.1900 C.3       1 PAL1        0.0000
     35 HA4        -0.2720    2.6570    0.2640 H         1 PAL1        0.0000
     36 OA4        -0.4210    2.8580    2.3170 O.3       1 PAL1        0.0000
     37 HOA4       -0.1910    3.7820    2.1300 H         1 PAL1        0.0000
     38 CA5        -0.6270    0.7500    1.1490 C.3       1 PAL1        0.0000
     39 HA5        -0.3730    0.1850    2.0760 H         1 PAL1        0.0000
     40 OA5        -0.1660    0.0060    0.0110 O.3       1 PAL1        0.0000
     41 CA1         1.2570   -0.1960   -0.0220 C.3       1 PAL1        0.0000
     42 HA1         1.4490   -0.6880   -1.0070 H         1 PAL1        0.0000
     43 OA1         1.6680   -1.0370    1.0420 O.3       1 PAL1        0.0000
     44 OPA2        2.9190   -2.9430    2.1000 O.3       1 PAL1        0.0000
     45 OPA3        2.5730   -2.8580   -0.4410 O.2       1 PAL1        0.0000
     46 OPA4        4.1630   -1.2370    0.6860 O.3       1 PAL1        0.0000
     47 PA          2.9150   -2.1000    0.8340 P.3       1 PAL1        0.0000
     48 CA3         1.5510    1.9730    1.1620 C.3       1 PAL1        0.0000
     49 HA3         1.8360    1.3530    2.0480 H         1 PAL1        0.0000
     50 OA3         2.3940    3.1290    1.1930 O.3       1 PAL1        0.0000
     51 C31         2.0150    4.3710    1.0700 C.2       1 PAL1        0.0000
     52 O31         0.8780    4.8020    1.0510 O.2       1 PAL1        0.0000
     53 C32         3.2610    5.2160    1.3340 C.3       1 PAL1        0.0000
     54 H32R        4.0250    4.9540    0.5730 H         1 PAL1        0.0000
     55 H32S        3.6550    4.9430    2.3350 H         1 PAL1        0.0000
     56 CA2         1.9290    1.1600   -0.0560 C.3       1 PAL1        0.0000
     57 HA2         1.4980    1.6910   -0.9410 H         1 PAL1        0.0000
     58 NA2         3.3400    1.0130   -0.3070 N.am      1 PAL1        0.0000
     59 HNA2        3.7090    0.1290    0.0570 H         1 PAL1        0.0000
     60 C73        -5.6730    7.6470   -4.4030 C.3       1 PAL1        0.0000
     61 H73R       -6.4270    8.2280   -3.8170 H         1 PAL1        0.0000
     62 O73        -5.9480    7.6110   -5.8080 O.3       1 PAL1        0.0000
     63 C81        -7.1330    8.0630   -6.1760 C.2       1 PAL1        0.0000
     64 O81        -7.8480    8.8060   -5.5400 O.2       1 PAL1        0.0000
     65 C82        -7.3720    7.7460   -7.6650 C.3       1 PAL1        0.0000
     66 H82R       -7.9040    8.6380   -8.0540 H         1 PAL1        0.0000
     67 H82S       -8.0750    6.8920   -7.7240 H         1 PAL1        0.0000
     68 C83        -6.1160    7.4650   -8.5370 C.3       1 PAL1        0.0000
     69 H83R       -5.9980    6.3690   -8.6890 H         1 PAL1        0.0000
     70 H83S       -5.1900    7.8220   -8.0340 H         1 PAL1        0.0000
     71 C84        -6.1860    8.1890   -9.8890 C.3       1 PAL1        0.0000
     72 H84R       -6.3770    9.2670   -9.6750 H         1 PAL1        0.0000
     73 H84S       -7.0470    7.8020  -10.4780 H         1 PAL1        0.0000
     74 C85        -4.8910    8.0820  -10.7130 C.3       1 PAL1        0.0000
     75 H85R       -5.0130    7.2950  -11.4890 H         1 PAL1        0.0000
     76 H85S       -4.0530    7.7640  -10.0520 H         1 PAL1        0.0000
     77 C86        -4.5060    9.4170  -11.3710 C.3       1 PAL1        0.0000
     78 H86R       -4.3460   10.1800  -10.5750 H         1 PAL1        0.0000
     79 H86S       -5.3570    9.7690  -11.9940 H         1 PAL1        0.0000
     80 C87        -3.2350    9.3330  -12.2340 C.3       1 PAL1        0.0000
     81 H87R       -3.3120    8.4730  -12.9350 H         1 PAL1        0.0000
     82 H87S       -2.3660    9.1450  -11.5660 H         1 PAL1        0.0000
     83 C88        -2.9910   10.6130  -13.0490 C.3       1 PAL1        0.0000
     84 H88R       -3.3560   11.4850  -12.4600 H         1 PAL1        0.0000
     85 H88S       -3.6030   10.5610  -13.9770 H         1 PAL1        0.0000
     86 C89        -1.5190   10.8790  -13.4190 C.3       1 PAL1        0.0000
     87 H89R       -0.9640   11.1610  -12.4970 H         1 PAL1        0.0000
     88 H89S       -1.4890   11.7560  -14.1050 H         1 PAL1        0.0000
     89 C810       -0.7990    9.6960  -14.0860 C.3       1 PAL1        0.0000
     90 H810       -1.4320    9.3030  -14.9130 H         1 PAL1        0.0000
     91 H810       -0.6620    8.8800  -13.3420 H         1 PAL1        0.0000
     92 C811        0.5760   10.0790  -14.6590 C.3       1 PAL1        0.0000
     93 H811        1.2230   10.4610  -13.8400 H         1 PAL1        0.0000
     94 H811        0.4380   10.9090  -15.3880 H         1 PAL1        0.0000
     95 C812        1.2710    8.9030  -15.3650 C.3       1 PAL1        0.0000
     96 H812        0.6210    8.5710  -16.2050 H         1 PAL1        0.0000
     97 H812        1.3580    8.0410  -14.6680 H         1 PAL1        0.0000
     98 C813        2.6670    9.2450  -15.9170 C.3       1 PAL1        0.0000
     99 H813        3.3970    9.3020  -15.0820 H         1 PAL1        0.0000
    100 H813        2.6370   10.2470  -16.4000 H         1 PAL1        0.0000
    101 C814        3.1420    8.2280  -16.9670 C.3       1 PAL1        0.0000
    102 H814        2.4380    8.2810  -17.8290 H         1 PAL1        0.0000
    103 H814        3.0810    7.2010  -16.5450 H         1 PAL1        0.0000
    104 C815        4.5670    8.4810  -17.4830 C.3       1 PAL1        0.0000
    105 H815        5.2910    7.9840  -16.7970 H         1 PAL1        0.0000
    106 H815        4.7830    9.5730  -17.4540 H         1 PAL1        0.0000
    107 C816        4.7810    7.9820  -18.9160 C.3       1 PAL1        0.0000
    108 H816        4.1760    8.5850  -19.6280 H         1 PAL1        0.0000
    109 H816        4.4710    6.9200  -19.0170 H         1 PAL1        0.0000
    110 H816        5.8480    8.0700  -19.2110 H         1 PAL1        0.0000
    111 C74        -4.2840    8.3100   -4.1990 C.3       1 PAL1        0.0000
    112 H74R       -3.5130    7.7170   -4.7310 H         1 PAL1        0.0000
    113 H74S       -4.0250    8.2880   -3.1180 H         1 PAL1        0.0000
    114 C75        -4.2400    9.7840   -4.6490 C.3       1 PAL1        0.0000
    115 H75R       -3.6970   10.4000   -3.8970 H         1 PAL1        0.0000
    116 H75S       -5.2910   10.1520   -4.6820 H         1 PAL1        0.0000
    117 C76        -3.5840    9.9820   -6.0230 C.3       1 PAL1        0.0000
    118 H76R       -3.8140    9.1020   -6.6670 H         1 PAL1        0.0000
    119 H76S       -2.4810   10.0140   -5.8850 H         1 PAL1        0.0000
    120 C77        -4.0600   11.2530   -6.7460 C.3       1 PAL1        0.0000
    121 H77R       -4.7260   11.8410   -6.0760 H         1 PAL1        0.0000
    122 H77S       -4.6680   10.9480   -7.6270 H         1 PAL1        0.0000
    123 C78        -2.9120   12.1580   -7.2140 C.3       1 PAL1        0.0000
    124 H78R       -2.2010   11.5530   -7.8190 H         1 PAL1        0.0000
    125 H78S       -2.3660   12.5480   -6.3270 H         1 PAL1        0.0000
    126 C79        -3.3920   13.3400   -8.0640 C.3       1 PAL1        0.0000
    127 H79R       -4.0130   14.0110   -7.4290 H         1 PAL1        0.0000
    128 H79S       -4.0470   12.9490   -8.8760 H         1 PAL1        0.0000
    129 C710       -2.2420   14.1350   -8.6890 C.3       1 PAL1        0.0000
    130 H710       -1.6570   13.4860   -9.3770 H         1 PAL1        0.0000
    131 H710       -1.5550   14.5160   -7.9030 H         1 PAL1        0.0000
    132 H710       -2.6270   15.0000   -9.2700 H         1 PAL1        0.0000
    133 C51        -1.6100    4.0820   -2.4490 C.2       1 PAL1        0.0000
    134 O51        -1.9900    3.6750   -3.5410 O.2       1 PAL1        0.0000
    135 C52        -0.1890    4.5520   -2.2450 C.3       1 PAL1        0.0000
    136 H52R        0.4070    3.6830   -1.8900 H         1 PAL1        0.0000
    137 H52S       -0.1620    5.3430   -1.4700 H         1 PAL1        0.0000
    138 C53         0.4430    5.0730   -3.5450 C.3       1 PAL1        0.0000
    139 H53R        0.3420    4.2820   -4.3300 H         1 PAL1        0.0000
    140 O53         1.8130    5.3350   -3.2020 O.3       1 PAL1        0.0000
    141 C61         2.7110    4.9580   -4.1110 C.2       1 PAL1        0.0000
    142 O61         2.4610    4.6000   -5.2450 O.2       1 PAL1        0.0000
    143 C62         4.1130    5.3000   -3.6010 C.3       1 PAL1        0.0000
    144 H62R        4.8400    4.7790   -4.2550 H         1 PAL1        0.0000
    145 H62S        4.2040    4.8950   -2.5740 H         1 PAL1        0.0000
    146 C63         4.4050    6.8130   -3.5520 C.3       1 PAL1        0.0000
    147 H63R        5.3800    6.9650   -3.0320 H         1 PAL1        0.0000
    148 H63S        3.6250    7.3320   -2.9550 H         1 PAL1        0.0000
    149 C64         4.5020    7.4570   -4.9350 C.3       1 PAL1        0.0000
    150 H64R        3.5860    7.2400   -5.5270 H         1 PAL1        0.0000
    151 H64S        5.3570    7.0100   -5.4880 H         1 PAL1        0.0000
    152 C65         4.6870    8.9730   -4.8270 C.3       1 PAL1        0.0000
    153 H65R        5.5500    9.1830   -4.1540 H         1 PAL1        0.0000
    154 H65S        3.7830    9.4250   -4.3640 H         1 PAL1        0.0000
    155 C66         4.9510    9.6270   -6.1840 C.3       1 PAL1        0.0000
    156 H66R        4.0970    9.4430   -6.8730 H         1 PAL1        0.0000
    157 H66S        5.8520    9.1490   -6.6310 H         1 PAL1        0.0000
    158 C67         5.1870   11.1360   -6.0580 C.3       1 PAL1        0.0000
    159 H67R        5.7810   11.3400   -5.1380 H         1 PAL1        0.0000
    160 H67S        4.2040   11.6450   -5.9450 H         1 PAL1        0.0000
    161 C68         5.9490   11.7030   -7.2590 C.3       1 PAL1        0.0000
    162 H68R        5.8610   11.0000   -8.1170 H         1 PAL1        0.0000
    163 H68S        7.0270   11.7720   -6.9960 H         1 PAL1        0.0000
    164 C69         5.4480   13.0790   -7.7080 C.3       1 PAL1        0.0000
    165 H69R        5.5200   13.7870   -6.8530 H         1 PAL1        0.0000
    166 H69S        4.3780   13.0100   -8.0050 H         1 PAL1        0.0000
    167 C610        6.2700   13.6150   -8.8860 C.3       1 PAL1        0.0000
    168 H610        6.1040   12.9660   -9.7750 H         1 PAL1        0.0000
    169 H610        7.3510   13.5570   -8.6250 H         1 PAL1        0.0000
    170 C611        5.9300   15.0660   -9.2380 C.3       1 PAL1        0.0000
    171 H611        6.0900   15.6940   -8.3310 H         1 PAL1        0.0000
    172 H611        4.8510   15.1330   -9.5040 H         1 PAL1        0.0000
    173 C612        6.7770   15.6140  -10.3890 C.3       1 PAL1        0.0000
    174 H612        6.5650   15.0610  -11.3290 H         1 PAL1        0.0000
    175 H612        7.8590   15.5040  -10.1590 H         1 PAL1        0.0000
    176 H612        6.5600   16.6900  -10.5570 H         1 PAL1        0.0000
    177 C54        -0.2240    6.3780   -4.0520 C.3       1 PAL1        0.0000
    178 H54R       -0.2840    7.1010   -3.2120 H         1 PAL1        0.0000
    179 H54S       -1.2610    6.1350   -4.3770 H         1 PAL1        0.0000
    180 C55         0.5210    7.0320   -5.2270 C.3       1 PAL1        0.0000
    181 H55R        0.6460    6.2780   -6.0370 H         1 PAL1        0.0000
    182 H55S        1.5370    7.3190   -4.8790 H         1 PAL1        0.0000
    183 C56        -0.1430    8.2800   -5.8180 C.3       1 PAL1        0.0000
    184 H56R       -0.1520    9.0860   -5.0560 H         1 PAL1        0.0000
    185 H56S       -1.2030    8.0650   -6.0760 H         1 PAL1        0.0000
    186 C57         0.6070    8.7460   -7.0750 C.3       1 PAL1        0.0000
    187 H57R        0.1160    8.2880   -7.9630 H         1 PAL1        0.0000
    188 H57S        1.6530    8.3640   -7.0400 H         1 PAL1        0.0000
    189 C58         0.6830   10.2670   -7.2540 C.3       1 PAL1        0.0000
    190 H58R        1.4190   10.6870   -6.5330 H         1 PAL1        0.0000
    191 H58S       -0.3060   10.7180   -7.0250 H         1 PAL1        0.0000
    192 C59         1.0880   10.6310   -8.6890 C.3       1 PAL1        0.0000
    193 H59R        0.3100   10.2380   -9.3820 H         1 PAL1        0.0000
    194 H59S        2.0430   10.1210   -8.9460 H         1 PAL1        0.0000
    195 C510        1.2410   12.1380   -8.9240 C.3       1 PAL1        0.0000
    196 H510        2.0620   12.5370   -8.2880 H         1 PAL1        0.0000
    197 H510        0.3040   12.6490   -8.6160 H         1 PAL1        0.0000
    198 C511        1.5330   12.4640  -10.3950 C.3       1 PAL1        0.0000
    199 H511        0.7670   11.9590  -11.0280 H         1 PAL1        0.0000
    200 H511        2.5240   12.0300  -10.6630 H         1 PAL1        0.0000
    201 C512        1.5240   13.9620  -10.7090 C.3       1 PAL1        0.0000
    202 H512        2.2600   14.5010  -10.0760 H         1 PAL1        0.0000
    203 H512        0.5180   14.3940  -10.5240 H         1 PAL1        0.0000
    204 H512        1.7820   14.1360  -11.7760 H         1 PAL1        0.0000
    205 C33         2.9730    6.7270    1.2930 C.3       1 PAL1        0.0000
    206 H33R        3.9140    7.2650    1.5620 H         1 PAL1        0.0000
    207 O33         2.0070    7.0530    2.2750 O.3       1 PAL1        0.0000
    208 HO33        1.1540    6.6280    2.1240 H         1 PAL1        0.0000
    209 C34         2.5200    7.2390   -0.0860 C.3       1 PAL1        0.0000
    210 H34R        1.5620    6.7570   -0.3770 H         1 PAL1        0.0000
    211 H34S        3.2840    6.9290   -0.8310 H         1 PAL1        0.0000
    212 C35         2.3310    8.7640   -0.1690 C.3       1 PAL1        0.0000
    213 H35R        3.2390    9.2870    0.2040 H         1 PAL1        0.0000
    214 H35S        1.4860    9.0480    0.4980 H         1 PAL1        0.0000
    215 C36         2.0230    9.2240   -1.6000 C.3       1 PAL1        0.0000
    216 H36R        1.5620    8.3760   -2.1580 H         1 PAL1        0.0000
    217 H36S        2.9730    9.4830   -2.1170 H         1 PAL1        0.0000
    218 C37         1.0540   10.4120   -1.6650 C.3       1 PAL1        0.0000
    219 H37R        1.5070   11.2800   -1.1400 H         1 PAL1        0.0000
    220 H37S        0.1200   10.1470   -1.1190 H         1 PAL1        0.0000
    221 C38         0.6880   10.7780   -3.1120 C.3       1 PAL1        0.0000
    222 H38R       -0.3820   10.5110   -3.2790 H         1 PAL1        0.0000
    223 H38S        1.2890   10.1500   -3.8090 H         1 PAL1        0.0000
    224 C39         0.9010   12.2530   -3.4820 C.3       1 PAL1        0.0000
    225 H39R        1.7710   12.3250   -4.1730 H         1 PAL1        0.0000
    226 H39S        1.1570   12.8390   -2.5710 H         1 PAL1        0.0000
    227 C310       -0.3250   12.8880   -4.1440 C.3       1 PAL1        0.0000
    228 H310       -1.1920   12.8730   -3.4490 H         1 PAL1        0.0000
    229 H310       -0.5990   12.3240   -5.0600 H         1 PAL1        0.0000
    230 H310       -0.1180   13.9430   -4.4260 H         1 PAL1        0.0000
    231 C11         4.0120    1.6780   -1.2370 C.2       1 PAL1        0.0000
    232 O11         3.7480    2.8450   -1.5080 O.2       1 PAL1        0.0000
    233 C12         5.0400    0.8620   -2.0110 C.3       1 PAL1        0.0000
    234 H12R        4.4630    0.1110   -2.5890 H         1 PAL1        0.0000
    235 H12S        5.6790    0.3040   -1.2930 H         1 PAL1        0.0000
    236 C13         5.8800    1.7340   -2.9730 C.3       1 PAL1        0.0000
    237 H13R        5.3390    2.6780   -3.2160 H         1 PAL1        0.0000
    238 O13         6.2110    0.9610   -4.1450 O.3       1 PAL1        0.0000
    239 C21         5.7030    1.4200   -5.2970 C.2       1 PAL1        0.0000
    240 O21         4.9490    2.3700   -5.4010 O.2       1 PAL1        0.0000
    241 C22         6.0380    0.4440   -6.4820 C.3       1 PAL1        0.0000
    242 H22S        6.3800   -0.5130   -6.0350 H         1 PAL1        0.0000
    243 O22         4.9390    0.1600   -7.3670 O.3       1 PAL1        0.0000
    244 HO22        4.3110    0.8840   -7.4890 H         1 PAL1        0.0000
    245 C23         7.1900    1.0240   -7.3580 C.3       1 PAL1        0.0000
    246 H23R        7.4370    0.2550   -8.1260 H         1 PAL1        0.0000
    247 H23S        8.0910    1.1570   -6.7230 H         1 PAL1        0.0000
    248 C24         6.8960    2.3490   -8.1030 C.3       1 PAL1        0.0000
    249 H24R        6.6150    3.1510   -7.3850 H         1 PAL1        0.0000
    250 H24S        6.0270    2.1890   -8.7790 H         1 PAL1        0.0000
    251 C25         8.1010    2.8170   -8.9430 C.3       1 PAL1        0.0000
    252 H25R        8.5470    1.9210   -9.4330 H         1 PAL1        0.0000
    253 H25S        8.8710    3.2480   -8.2650 H         1 PAL1        0.0000
    254 C26         7.7600    3.8330  -10.0520 C.3       1 PAL1        0.0000
    255 H26R        7.3290    4.7570   -9.6080 H         1 PAL1        0.0000
    256 H26S        6.9870    3.3910  -10.7190 H         1 PAL1        0.0000
    257 C27         8.9900    4.2080  -10.9010 C.3       1 PAL1        0.0000
    258 H27R        9.5520    3.2840  -11.1640 H         1 PAL1        0.0000
    259 H27S        9.6610    4.8400  -10.2800 H         1 PAL1        0.0000
    260 C28         8.6500    4.9530  -12.2050 C.3       1 PAL1        0.0000
    261 H28R        7.6690    5.4630  -12.0930 H         1 PAL1        0.0000
    262 H28S        8.5430    4.2070  -13.0250 H         1 PAL1        0.0000
    263 C29         9.7010    6.0060  -12.6020 C.3       1 PAL1        0.0000
    264 H29R       10.7050    5.5300  -12.6510 H         1 PAL1        0.0000
    265 H29S        9.7450    6.7930  -11.8170 H         1 PAL1        0.0000
    266 C210        9.3980    6.6710  -13.9550 C.3       1 PAL1        0.0000
    267 H210        8.3970    7.1540  -13.9100 H         1 PAL1        0.0000
    268 H210        9.3570    5.8850  -14.7420 H         1 PAL1        0.0000
    269 C211       10.4420    7.7210  -14.3610 C.3       1 PAL1        0.0000
    270 H211       11.4440    7.2350  -14.3820 H         1 PAL1        0.0000
    271 H211       10.4740    8.5190  -13.5830 H         1 PAL1        0.0000
    272 C212       10.1640    8.3610  -15.7250 C.3       1 PAL1        0.0000
    273 H212        9.2080    8.9270  -15.7090 H         1 PAL1        0.0000
    274 H212       10.0920    7.5800  -16.5130 H         1 PAL1        0.0000
    275 H212       10.9810    9.0620  -16.0020 H         1 PAL1        0.0000
    276 C14         7.2040    2.1380   -2.2940 C.3       1 PAL1        0.0000
    277 H14R        7.6850    1.2130   -1.9050 H         1 PAL1        0.0000
    278 H14S        6.9570    2.7740   -1.4170 H         1 PAL1        0.0000
    279 C15         8.2160    2.8690   -3.1970 C.3       1 PAL1        0.0000
    280 H15R        8.5790    2.1740   -3.9870 H         1 PAL1        0.0000
    281 H15S        9.0910    3.1410   -2.5660 H         1 PAL1        0.0000
    282 C16         7.6770    4.1450   -3.8620 C.3       1 PAL1        0.0000
    283 H16R        7.0920    4.7300   -3.1190 H         1 PAL1        0.0000
    284 H16S        6.9830    3.8740   -4.6870 H         1 PAL1        0.0000
    285 C17         8.8040    5.0250   -4.4230 C.3       1 PAL1        0.0000
    286 H17R        9.4690    4.4120   -5.0700 H         1 PAL1        0.0000
    287 H17S        9.4180    5.3970   -3.5740 H         1 PAL1        0.0000
    288 C18         8.2950    6.2270   -5.2310 C.3       1 PAL1        0.0000
    289 H18R        7.5300    6.7670   -4.6310 H         1 PAL1        0.0000
    290 H18S        7.8030    5.8610   -6.1600 H         1 PAL1        0.0000
    291 C19         9.4240    7.2020   -5.5930 C.3       1 PAL1        0.0000
    292 H19R       10.1870    6.6650   -6.1990 H         1 PAL1        0.0000
    293 H19S        9.9190    7.5480   -4.6570 H         1 PAL1        0.0000
    294 C110        8.9470    8.4340   -6.3740 C.3       1 PAL1        0.0000
    295 H110        8.2430    9.0180   -5.7410 H         1 PAL1        0.0000
    296 H110        8.3820    8.0990   -7.2720 H         1 PAL1        0.0000
    297 C111       10.1210    9.3260   -6.8070 C.3       1 PAL1        0.0000
    298 H111       10.7910    8.7390   -7.4750 H         1 PAL1        0.0000
    299 H111       10.7140    9.6080   -5.9080 H         1 PAL1        0.0000
    300 C112        9.7000   10.6030   -7.5350 C.3       1 PAL1        0.0000
    301 H112        9.0940   11.2420   -6.8610 H         1 PAL1        0.0000
    302 H112        9.0870   10.3530   -8.4260 H         1 PAL1        0.0000
    303 H112       10.5900   11.1840   -7.8640 H         1 PAL1        0.0000
@<TRIPOS>BOND
     1  108  107 1 
     2  110  107 1 
     3  109  107 1 
     4  107  104 1 
     5  102  101 1 
     6  104  106 1 
     7  104  101 1 
     8  104  105 1 
     9  101  103 1 
    10  101   98 1 
    11  274  272 1 
    12  100   98 1 
    13   96   95 1 
    14  275  272 1 
    15   98   95 1 
    16   98   99 1 
    17  272  273 1 
    18  272  269 1 
    19   94   92 1 
    20   95   97 1 
    21   95   92 1 
    22   90   89 1 
    23  268  266 1 
    24   92   89 1 
    25   92   93 1 
    26  270  269 1 
    27  269  266 1 
    28  269  271 1 
    29   88   86 1 
    30   89   86 1 
    31   89   91 1 
    32   85   83 1 
    33  266  267 1 
    34  266  263 1 
    35   86   83 1 
    36   86   87 1 
    37   83   84 1 
    38   83   80 1 
    39  262  260 1 
    40   81   80 1 
    41  264  263 1 
    42  263  260 1 
    43  263  265 1 
    44   80   82 1 
    45   80   77 1 
    46  260  261 1 
    47  260  257 1 
    48   79   77 1 
    49  204  201 1 
    50   75   74 1 
    51   77   74 1 
    52   77   78 1 
    53  174  173 1 
    54  258  257 1 
    55  199  198 1 
    56  257  259 1 
    57  257  254 1 
    58  256  254 1 
    59   74   76 1 
    60   74   71 1 
    61  201  203 1 
    62  201  198 1 
    63  201  202 1 
    64  200  198 1 
    65  176  173 1 
    66   73   71 1 
    67  198  195 1 
    68  173  175 1 
    69  173  170 1 
    70  254  255 1 
    71  254  251 1 
    72   71   72 1 
    73   71   68 1 
    74  168  167 1 
    75  172  170 1 
    76  252  251 1 
    77  193  192 1 
    78  130  129 1 
    79  132  129 1 
    80  170  167 1 
    81  170  171 1 
    82  194  192 1 
    83  251  253 1 
    84  251  248 1 
    85  195  192 1 
    86  195  197 1 
    87  195  196 1 
    88  167  169 1 
    89  167  164 1 
    90  128  126 1 
    91  250  248 1 
    92  129  126 1 
    93  129  131 1 
    94   69   68 1 
    95  192  189 1 
    96   68   70 1 
    97   68   65 1 
    98  302  300 1 
    99  246  245 1 
   100  162  161 1 
   101  248  249 1 
   102  248  245 1 
   103  126  127 1 
   104  126  123 1 
   105   66   65 1 
   106  166  164 1 
   107  187  186 1 
   108  303  300 1 
   109  124  123 1 
   110   67   65 1 
   111  164  161 1 
   112  164  165 1 
   113   65   63 1 
   114  122  120 1 
   115  300  301 1 
   116  300  297 1 
   117  244  243 1 
   118  298  297 1 
   119  243  241 1 
   120  245  247 1 
   121  245  241 1 
   122  296  294 1 
   123  161  163 1 
   124  161  158 1 
   125  189  186 1 
   126  189  191 1 
   127  189  190 1 
   128  123  120 1 
   129  123  125 1 
   130  186  188 1 
   131  186  183 1 
   132  156  155 1 
   133  297  294 1 
   134  297  299 1 
   135  120  121 1 
   136  120  117 1 
   137  118  117 1 
   138  157  155 1 
   139  241  242 1 
   140  241  239 1 
   141  294  295 1 
   142  294  291 1 
   143  292  291 1 
   144  155  158 1 
   145  155  152 1 
   146   63   62 1 
   147   63   64 2 
   148  290  288 1 
   149  185  183 1 
   150  158  160 1 
   151  158  159 1 
   152  181  180 1 
   153  117  119 1 
   154  117  114 1 
   155  183  180 1 
   156  183  184 1 
   157   62   60 1 
   158  291  288 1 
   159  291  293 1 
   160  150  149 1 
   161  151  149 1 
   162  240  239 2 
   163  239  238 1 
   164  142  141 2 
   165  288  289 1 
   166  288  285 1 
   167  180  182 1 
   168  180  177 1 
   169  286  285 1 
   170  229  227 1 
   171  149  152 1 
   172  149  146 1 
   173  152  154 1 
   174  152  153 1 
   175  112  111 1 
   176  284  282 1 
   177  116  114 1 
   178  114  111 1 
   179  114  115 1 
   180   29   27 1 
   181  230  227 1 
   182  285  282 1 
   183  285  287 1 
   184   60  111 1 
   185   60   27 1 
   186   60   61 1 
   187  179  177 1 
   188  139  138 1 
   189  144  143 1 
   190   28   27 1 
   191  111  113 1 
   192  225  224 1 
   193  238  236 1 
   194  227  224 1 
   195  227  228 1 
   196  141  143 1 
   197  141  140 1 
   198  177  138 1 
   199  177  178 1 
   200   27   25 1 
   201  280  279 1 
   202  282  279 1 
   203  282  283 1 
   204  223  221 1 
   205  143  146 1 
   206  143  145 1 
   207  146  147 1 
   208  146  148 1 
   209  138  140 1 
   210  138  135 1 
   211  134  133 2 
   212  224  221 1 
   213  224  226 1 
   214  222  221 1 
   215  237  236 1 
   216  279  281 1 
   217  279  276 1 
   218  221  218 1 
   219   21   18 2 
   220  236  276 1 
   221  236  233 1 
   222  234  233 1 
   223   25   23 1 
   224   25   26 2 
   225  133  135 1 
   226  133   32 am
   227   23   22 1 
   228   19   18 1 
   229  276  277 1 
   230  276  278 1 
   231  135  136 1 
   232  135  137 1 
   233  216  215 1 
   234  217  215 1 
   235   31   30 1 
   236  233  235 1 
   237  233  231 1 
   238   18   20 1 
   239   18   17 1 
   240   16   15 1 
   241  218  215 1 
   242  218  219 1 
   243  218  220 1 
   244  215  212 1 
   245  232  231 2 
   246   32   30 1 
   247   32   33 1 
   248  231   58 am
   249   30   22 1 
   250   30    9 1 
   251   22   15 1 
   252   22   24 1 
   253   42   41 1 
   254   57   56 1 
   255   15   17 1 
   256   15    6 1 
   257  211  209 1 
   258   45   47 2 
   259  210  209 1 
   260   58   56 1 
   261   58   59 1 
   262    5    4 1 
   263  212  209 1 
   264  212  213 1 
   265  212  214 1 
   266   11    9 1 
   267   11   12 1 
   268  209  205 1 
   269   56   41 1 
   270   56   48 1 
   271   41   40 1 
   272   41   43 1 
   273   40   38 1 
   274    9    7 1 
   275    9   10 1 
   276    7    6 1 
   277   35   34 1 
   278    6    4 1 
   279    6    8 1 
   280   54   53 1 
   281    4    1 1 
   282    4    2 1 
   283   46   47 1 
   284   47   43 1 
   285   47   44 1 
   286   13   12 1 
   287   12   38 1 
   288   12   14 1 
   289   52   51 2 
   290   51   50 1 
   291   51   53 1 
   292   38   34 1 
   293   38   39 1 
   294   48   34 1 
   295   48   50 1 
   296   48   49 1 
   297   34   36 1 
   298  205   53 1 
   299  205  206 1 
   300  205  207 1 
   301   53   55 1 
   302    3    2 1 
   303  208  207 1 
   304   37   36 1 
