@<TRIPOS>MOLECULE
C:\Users\Praveer\PycharmProjects\pdb_to_mol2_converter\data\pdb\palipe.pdb
  276   278     0     0     0
SMALL
GASTEIGER

@<TRIPOS>ATOM
      1 HB6S       -7.6120    2.8610    1.5530 H         1 PAL1        0.0000
      2 OB6        -6.4070    1.4060    2.4040 O.3       1 PAL1        0.0000
      3 HOB6       -5.6320    0.8870    2.1500 H         1 PAL1        0.0000
      4 CB6        -6.8230    2.1360    1.2500 C.3       1 PAL1        0.0000
      5 HB6R       -7.2460    1.4220    0.5150 H         1 PAL1        0.0000
      6 CB5        -5.6740    2.8700    0.6080 C.3       1 PAL1        0.0000
      7 OB5        -4.6130    1.9290    0.4250 O.3       1 PAL1        0.0000
      8 HB5        -5.3570    3.6900    1.2970 H         1 PAL1        0.0000
      9 CB1        -3.3890    2.5780    0.0880 C.3       1 PAL1        0.0000
     10 HB1        -3.0680    3.2370    0.9270 H         1 PAL1        0.0000
     11 OA6        -2.3920    1.6340   -0.1800 O.3       1 PAL1        0.0000
     12 CA6        -2.0940    0.8070    0.9490 C.3       1 PAL1        0.0000
     13 HA6R       -2.5150   -0.2100    0.7880 H         1 PAL1        0.0000
     14 HA6S       -2.5370    1.2220    1.8820 H         1 PAL1        0.0000
     15 CB4        -5.9450    3.4120   -0.7810 C.3       1 PAL1        0.0000
     16 HB4        -5.9820    2.5420   -1.4850 H         1 PAL1        0.0000
     17 OB4        -7.1640    4.1630   -0.7630 O.3       1 PAL1        0.0000
     18 OD1        -9.6220    3.4520   -0.7530 O.3       1 PAL1        0.0000
     19 PB         -8.4080    3.7870   -1.8080 P.3       1 PAL1        0.0000
     20 OPB3       -8.0460    2.5180   -2.5730 O.3       1 PAL1        0.0000
     21 OPB4       -8.7660    5.0110   -2.6360 O.2       1 PAL1        0.0000
     22 CD1       -10.5970    2.4320   -0.8360 C.3       1 PAL1        0.0000
     23 HD1       -11.4440    2.8430   -0.2320 H         1 PAL1        0.0000
     24 CD5       -10.6480    1.2390   -2.9850 C.3       1 PAL1        0.0000
     25 HD51       -9.8900    1.7250   -3.6350 H         1 PAL1        0.0000
     26 HD52      -11.4440    0.9530   -3.7080 H         1 PAL1        0.0000
     27 OD5       -11.2060    2.2590   -2.1320 O.3       1 PAL1        0.0000
     28 CD2       -10.2770    1.1080   -0.1730 C.3       1 PAL1        0.0000
     29 HD2       -11.2460    0.5580   -0.0810 H         1 PAL1        0.0000
     30 OD2        -9.8590    1.2750    1.1740 O.3       1 PAL1        0.0000
     31 HOD2       -9.5730    2.1880    1.3020 H         1 PAL1        0.0000
     32 CD3        -9.3580    0.2540   -1.0110 C.3       1 PAL1        0.0000
     33 HD3        -8.4050    0.7910   -1.1720 H         1 PAL1        0.0000
     34 OD3        -8.9930   -0.9570   -0.3420 O.3       1 PAL1        0.0000
     35 HOD3       -8.5560   -0.7020    0.4880 H         1 PAL1        0.0000
     36 CD4       -10.0380   -0.0140   -2.3450 C.3       1 PAL1        0.0000
     37 HD4        -9.2500   -0.3960   -3.0420 H         1 PAL1        0.0000
     38 ND4       -11.0180   -1.0770   -2.2260 N.4       1 PAL1        0.0000
     39 HND1      -11.2090   -1.5400   -3.1350 H         1 PAL1        0.0000
     40 HND2      -11.8960   -0.7000   -1.8160 H         1 PAL1        0.0000
     41 HND3      -10.5960   -1.7620   -1.5520 H         1 PAL1        0.0000
     42 CB3        -4.7520    4.2540   -1.1790 C.3       1 PAL1        0.0000
     43 OB3        -4.9590    4.7180   -2.5080 O.3       1 PAL1        0.0000
     44 HB3        -4.5860    5.0720   -0.4340 H         1 PAL1        0.0000
     45 C71        -5.4460    5.9420   -2.6410 C.2       1 PAL1        0.0000
     46 O71        -5.4630    6.7970   -1.7630 O.2       1 PAL1        0.0000
     47 C72        -5.7310    6.1930   -4.1010 C.3       1 PAL1        0.0000
     48 H72R       -6.7370    5.7800   -4.3200 H         1 PAL1        0.0000
     49 H72S       -4.9730    5.6720   -4.7220 H         1 PAL1        0.0000
     50 CB2        -3.5030    3.3890   -1.1880 C.3       1 PAL1        0.0000
     51 HB2        -3.6390    2.6500   -2.0220 H         1 PAL1        0.0000
     52 NB2        -2.2690    4.1400   -1.4060 N.am      1 PAL1        0.0000
     53 HNB2       -1.8300    4.5050   -0.5950 H         1 PAL1        0.0000
     54 CA4         0.0380    2.1170    1.1400 C.3       1 PAL1        0.0000
     55 HA4        -0.2450    2.6500    0.2010 H         1 PAL1        0.0000
     56 OA4        -0.4840    2.8470    2.2470 O.3       1 PAL1        0.0000
     57 HOA4       -0.1830    3.7620    2.1170 H         1 PAL1        0.0000
     58 CA5        -0.5900    0.7350    1.0920 C.3       1 PAL1        0.0000
     59 HA5        -0.3450    0.1820    2.0290 H         1 PAL1        0.0000
     60 OA5        -0.0890   -0.0220   -0.0190 O.3       1 PAL1        0.0000
     61 CA1         1.3430   -0.1700   -0.0260 C.3       1 PAL1        0.0000
     62 HA1         1.5650   -0.6670   -1.0050 H         1 PAL1        0.0000
     63 OA1         1.7830   -0.9740    1.0580 O.3       1 PAL1        0.0000
     64 OPA2        3.0900   -2.8500    2.1320 O.3       1 PAL1        0.0000
     65 OPA3        2.6330   -2.8700   -0.3840 O.2       1 PAL1        0.0000
     66 OPA4        4.2640   -1.2020    0.6010 O.3       1 PAL1        0.0000
     67 PA          3.0230   -2.0550    0.8450 P.3       1 PAL1        0.0000
     68 CA3         1.5510    2.0050    1.1650 C.3       1 PAL1        0.0000
     69 HA3         1.8200    1.4060    2.0690 H         1 PAL1        0.0000
     70 OA3         2.3790    3.1690    1.2010 O.3       1 PAL1        0.0000
     71 C31         1.9910    4.4040    1.1420 C.2       1 PAL1        0.0000
     72 O31         0.8360    4.8260    1.1550 O.2       1 PAL1        0.0000
     73 C32         3.2260    5.2560    1.3870 C.3       1 PAL1        0.0000
     74 H32R        3.9860    4.9670    0.6290 H         1 PAL1        0.0000
     75 H32S        3.6200    5.0160    2.3960 H         1 PAL1        0.0000
     76 CA2         1.9770    1.2060   -0.0430 C.3       1 PAL1        0.0000
     77 HA2         1.5540    1.7250   -0.9430 H         1 PAL1        0.0000
     78 NA2         3.4020    1.0930   -0.2330 N.am      1 PAL1        0.0000
     79 HNA2        3.7630    0.1990    0.1170 H         1 PAL1        0.0000
     80 C73        -5.6730    7.6960   -4.3630 C.3       1 PAL1        0.0000
     81 H73R       -6.3070    8.2520   -3.6300 H         1 PAL1        0.0000
     82 O73        -6.1820    7.9150   -5.6640 O.3       1 PAL1        0.0000
     83 HO73       -7.0850    7.6070   -5.7850 H         1 PAL1        0.0000
     84 C74        -4.2320    8.2270   -4.3070 C.3       1 PAL1        0.0000
     85 H74R       -3.6410    7.7820   -5.1360 H         1 PAL1        0.0000
     86 H74S       -3.7710    7.8820   -3.3570 H         1 PAL1        0.0000
     87 C75        -4.1310    9.7560   -4.3460 C.3       1 PAL1        0.0000
     88 H75R       -5.0580   10.2010   -3.9180 H         1 PAL1        0.0000
     89 H75S       -4.0470   10.0990   -5.4000 H         1 PAL1        0.0000
     90 C76        -2.9490   10.2440   -3.5080 C.3       1 PAL1        0.0000
     91 H76R       -1.9980    9.8570   -3.9340 H         1 PAL1        0.0000
     92 H76S       -3.0620    9.8220   -2.4800 H         1 PAL1        0.0000
     93 C77        -2.9040   11.7680   -3.4050 C.3       1 PAL1        0.0000
     94 H77R       -3.8580   12.1180   -2.9490 H         1 PAL1        0.0000
     95 H77S       -2.8250   12.2090   -4.4240 H         1 PAL1        0.0000
     96 C78        -1.7160   12.2230   -2.5590 C.3       1 PAL1        0.0000
     97 H78R       -0.7850   11.9830   -3.1050 H         1 PAL1        0.0000
     98 H78S       -1.7100   11.6630   -1.5950 H         1 PAL1        0.0000
     99 C79        -1.6720   13.7270   -2.3080 C.3       1 PAL1        0.0000
    100 H79R       -2.4880   13.9900   -1.5970 H         1 PAL1        0.0000
    101 H79S       -1.8420   14.2480   -3.2790 H         1 PAL1        0.0000
    102 C710       -0.3290   14.1710   -1.7270 C.3       1 PAL1        0.0000
    103 H710        0.4610   14.1750   -2.5090 H         1 PAL1        0.0000
    104 H710       -0.0150   13.4750   -0.9210 H         1 PAL1        0.0000
    105 H710       -0.4110   15.1920   -1.3020 H         1 PAL1        0.0000
    106 C51        -1.5640    4.1520   -2.5480 C.2       1 PAL1        0.0000
    107 O51        -2.0240    3.8110   -3.6280 O.2       1 PAL1        0.0000
    108 C52        -0.1160    4.5670   -2.3900 C.3       1 PAL1        0.0000
    109 H52R        0.4500    3.6890   -2.0090 H         1 PAL1        0.0000
    110 H52S       -0.0440    5.3860   -1.6460 H         1 PAL1        0.0000
    111 C53         0.5260    5.0230   -3.7110 C.3       1 PAL1        0.0000
    112 H53R        0.4430    4.1930   -4.4580 H         1 PAL1        0.0000
    113 O53         1.8870    5.3240   -3.3640 O.3       1 PAL1        0.0000
    114 C61         2.8000    4.9350   -4.2510 C.2       1 PAL1        0.0000
    115 O61         2.5640    4.4840   -5.3570 O.2       1 PAL1        0.0000
    116 C62         4.2010    5.2400   -3.7200 C.3       1 PAL1        0.0000
    117 H62R        4.9230    4.7130   -4.3740 H         1 PAL1        0.0000
    118 H62S        4.2720    4.8220   -2.6970 H         1 PAL1        0.0000
    119 C63         4.5390    6.7420   -3.6540 C.3       1 PAL1        0.0000
    120 H63R        5.5340    6.8540   -3.1600 H         1 PAL1        0.0000
    121 H63S        3.7920    7.2610   -3.0200 H         1 PAL1        0.0000
    122 C64         4.6040    7.4020   -5.0340 C.3       1 PAL1        0.0000
    123 H64R        3.6290    7.2880   -5.5550 H         1 PAL1        0.0000
    124 H64S        5.3730    6.8850   -5.6490 H         1 PAL1        0.0000
    125 C65         4.9450    8.8910   -4.9330 C.3       1 PAL1        0.0000
    126 H65R        5.9030    8.9990   -4.3750 H         1 PAL1        0.0000
    127 H65S        4.1570    9.4170   -4.3500 H         1 PAL1        0.0000
    128 C66         5.1100    9.5690   -6.2970 C.3       1 PAL1        0.0000
    129 H66R        4.1650    9.4910   -6.8810 H         1 PAL1        0.0000
    130 H66S        5.9040    9.0340   -6.8640 H         1 PAL1        0.0000
    131 C67         5.5060   11.0420   -6.1330 C.3       1 PAL1        0.0000
    132 H67R        6.2090   11.1330   -5.2710 H         1 PAL1        0.0000
    133 H67S        4.5970   11.6280   -5.8810 H         1 PAL1        0.0000
    134 C68         6.1940   11.6400   -7.3660 C.3       1 PAL1        0.0000
    135 H68R        6.1970   10.9130   -8.2090 H         1 PAL1        0.0000
    136 H68S        7.2500   11.8500   -7.0920 H         1 PAL1        0.0000
    137 C69         5.5780   12.9640   -7.8270 C.3       1 PAL1        0.0000
    138 H69R        5.5900   13.6720   -6.9670 H         1 PAL1        0.0000
    139 H69S        4.5190   12.8050   -8.1270 H         1 PAL1        0.0000
    140 C610        6.3630   13.5850   -8.9910 C.3       1 PAL1        0.0000
    141 H610        6.2020   12.9790   -9.9100 H         1 PAL1        0.0000
    142 H610        7.4510   13.5520   -8.7570 H         1 PAL1        0.0000
    143 C611        5.9830   15.0450   -9.2610 C.3       1 PAL1        0.0000
    144 H611        6.1660   15.6370   -8.3340 H         1 PAL1        0.0000
    145 H611        4.8940   15.1050   -9.4890 H         1 PAL1        0.0000
    146 C612        6.7810   15.6610  -10.4130 C.3       1 PAL1        0.0000
    147 H612        6.5410   15.1460  -11.3680 H         1 PAL1        0.0000
    148 H612        7.8720   15.5570  -10.2240 H         1 PAL1        0.0000
    149 H612        6.5440   16.7410  -10.5230 H         1 PAL1        0.0000
    150 C54        -0.1550    6.2900   -4.2850 C.3       1 PAL1        0.0000
    151 H54R       -0.2450    7.0540   -3.4840 H         1 PAL1        0.0000
    152 H54S       -1.1810    6.0080   -4.6130 H         1 PAL1        0.0000
    153 C55         0.5710    6.9180   -5.4830 C.3       1 PAL1        0.0000
    154 H55R        0.8190    6.1110   -6.2130 H         1 PAL1        0.0000
    155 H55S        1.5260    7.3660   -5.1330 H         1 PAL1        0.0000
    156 C56        -0.2500    7.9950   -6.2020 C.3       1 PAL1        0.0000
    157 H56R       -0.4230    8.8540   -5.5180 H         1 PAL1        0.0000
    158 H56S       -1.2500    7.5740   -6.4560 H         1 PAL1        0.0000
    159 C57         0.4530    8.4670   -7.4850 C.3       1 PAL1        0.0000
    160 H57R       -0.1280    8.1100   -8.3660 H         1 PAL1        0.0000
    161 H57S        1.4750    8.0260   -7.5380 H         1 PAL1        0.0000
    162 C58         0.6110    9.9820   -7.6100 C.3       1 PAL1        0.0000
    163 H58R        1.3630   10.3480   -6.8720 H         1 PAL1        0.0000
    164 H58S       -0.3770   10.4540   -7.4000 H         1 PAL1        0.0000
    165 C59         1.0830   10.3790   -9.0150 C.3       1 PAL1        0.0000
    166 H59R        0.3470    9.9880   -9.7540 H         1 PAL1        0.0000
    167 H59S        2.0710    9.9050   -9.2170 H         1 PAL1        0.0000
    168 C510        1.1860   11.8970   -9.1780 C.3       1 PAL1        0.0000
    169 H510        1.9380   12.2950   -8.4600 H         1 PAL1        0.0000
    170 H510        0.1990   12.3460   -8.9230 H         1 PAL1        0.0000
    171 C511        1.5590   12.3490  -10.5940 C.3       1 PAL1        0.0000
    172 H511        0.8530   11.8970  -11.3300 H         1 PAL1        0.0000
    173 H511        2.5820   11.9890  -10.8450 H         1 PAL1        0.0000
    174 C512        1.5070   13.8720  -10.7170 C.3       1 PAL1        0.0000
    175 H512        2.1630   14.3350   -9.9480 H         1 PAL1        0.0000
    176 H512        0.4660   14.2280  -10.5470 H         1 PAL1        0.0000
    177 H512        1.8420   14.2060  -11.7210 H         1 PAL1        0.0000
    178 C33         2.9340    6.7600    1.2820 C.3       1 PAL1        0.0000
    179 H33R        3.8790    7.3150    1.4980 H         1 PAL1        0.0000
    180 O33         1.9830    7.1340    2.2610 O.3       1 PAL1        0.0000
    181 HO33        1.1270    6.7060    2.1390 H         1 PAL1        0.0000
    182 C34         2.4460    7.1910   -0.1090 C.3       1 PAL1        0.0000
    183 H34R        1.4820    6.6970   -0.3590 H         1 PAL1        0.0000
    184 H34S        3.1980    6.8420   -0.8520 H         1 PAL1        0.0000
    185 C35         2.2590    8.7060   -0.2790 C.3       1 PAL1        0.0000
    186 H35R        3.1050    9.2590    0.1860 H         1 PAL1        0.0000
    187 H35S        1.3280    9.0160    0.2450 H         1 PAL1        0.0000
    188 C36         2.1770    9.0570   -1.7650 C.3       1 PAL1        0.0000
    189 H36R        1.6800    8.2170   -2.3080 H         1 PAL1        0.0000
    190 H36S        3.2110    9.1540   -2.1640 H         1 PAL1        0.0000
    191 C37         1.4260   10.3500   -2.0790 C.3       1 PAL1        0.0000
    192 H37R        1.9710   11.2050   -1.6180 H         1 PAL1        0.0000
    193 H37S        0.4090   10.3070   -1.6200 H         1 PAL1        0.0000
    194 C38         1.3070   10.5250   -3.6040 C.3       1 PAL1        0.0000
    195 H38R        0.2400   10.4200   -3.8880 H         1 PAL1        0.0000
    196 H38S        1.8440    9.6930   -4.1160 H         1 PAL1        0.0000
    197 C39         1.8820   11.8380   -4.1550 C.3       1 PAL1        0.0000
    198 H39R        2.8640   11.6050   -4.6170 H         1 PAL1        0.0000
    199 H39S        2.1230   12.5300   -3.3220 H         1 PAL1        0.0000
    200 C310        0.9700   12.5940   -5.1310 C.3       1 PAL1        0.0000
    201 H310        0.1450   11.9530   -5.5140 H         1 PAL1        0.0000
    202 H310        1.5560   12.9720   -5.9960 H         1 PAL1        0.0000
    203 H310        0.5210   13.4620   -4.6000 H         1 PAL1        0.0000
    204 C11         4.0950    1.7390   -1.1590 C.2       1 PAL1        0.0000
    205 O11         3.8990    2.9220   -1.4120 O.2       1 PAL1        0.0000
    206 C12         5.0550    0.8750   -1.9630 C.3       1 PAL1        0.0000
    207 H12R        4.4290    0.1340   -2.5040 H         1 PAL1        0.0000
    208 H12S        5.7020    0.3060   -1.2640 H         1 PAL1        0.0000
    209 C13         5.8850    1.7160   -2.9560 C.3       1 PAL1        0.0000
    210 H13R        5.3420    2.6560   -3.2030 H         1 PAL1        0.0000
    211 O13         6.1730    0.9210   -4.1250 O.3       1 PAL1        0.0000
    212 C21         5.6730    1.3990   -5.2730 C.2       1 PAL1        0.0000
    213 O21         5.0170    2.4160   -5.3840 O.2       1 PAL1        0.0000
    214 C22         6.0260    0.4570   -6.4790 C.3       1 PAL1        0.0000
    215 H22S        6.3690   -0.5100   -6.0520 H         1 PAL1        0.0000
    216 O22         4.9310    0.1790   -7.3710 O.3       1 PAL1        0.0000
    217 HO22        4.3450    0.9250   -7.5500 H         1 PAL1        0.0000
    218 C23         7.1860    1.0560   -7.3350 C.3       1 PAL1        0.0000
    219 H23R        7.4620    0.2810   -8.0880 H         1 PAL1        0.0000
    220 H23S        8.0720    1.2150   -6.6830 H         1 PAL1        0.0000
    221 C24         6.8880    2.3650   -8.1070 C.3       1 PAL1        0.0000
    222 H24R        6.6280    3.1850   -7.4010 H         1 PAL1        0.0000
    223 H24S        6.0100    2.1980   -8.7710 H         1 PAL1        0.0000
    224 C25         8.0850    2.7990   -8.9790 C.3       1 PAL1        0.0000
    225 H25R        8.4690    1.8960   -9.5080 H         1 PAL1        0.0000
    226 H25S        8.8990    3.1790   -8.3230 H         1 PAL1        0.0000
    227 C26         7.7650    3.8520  -10.0590 C.3       1 PAL1        0.0000
    228 H26R        7.3720    4.7780   -9.5820 H         1 PAL1        0.0000
    229 H26S        6.9680    3.4460  -10.7220 H         1 PAL1        0.0000
    230 C27         8.9990    4.2070  -10.9150 C.3       1 PAL1        0.0000
    231 H27R        9.5560    3.2750  -11.1630 H         1 PAL1        0.0000
    232 H27S        9.6770    4.8420  -10.3000 H         1 PAL1        0.0000
    233 C28         8.6730    4.9340  -12.2340 C.3       1 PAL1        0.0000
    234 H28R        7.6650    5.4000  -12.1660 H         1 PAL1        0.0000
    235 H28S        8.6400    4.1860  -13.0580 H         1 PAL1        0.0000
    236 C29         9.6890    6.0330  -12.5960 C.3       1 PAL1        0.0000
    237 H29R       10.7110    5.5910  -12.6090 H         1 PAL1        0.0000
    238 H29S        9.6660    6.8170  -11.8070 H         1 PAL1        0.0000
    239 C210        9.4090    6.6840  -13.9620 C.3       1 PAL1        0.0000
    240 H210        8.4090    7.1730  -13.9350 H         1 PAL1        0.0000
    241 H210        9.3750    5.8890  -14.7410 H         1 PAL1        0.0000
    242 C211       10.4630    7.7230  -14.3750 C.3       1 PAL1        0.0000
    243 H211       11.4590    7.2260  -14.4140 H         1 PAL1        0.0000
    244 H211       10.5180    8.5190  -13.5980 H         1 PAL1        0.0000
    245 C212       10.1750    8.3690  -15.7350 C.3       1 PAL1        0.0000
    246 H212        9.2320    8.9550  -15.6950 H         1 PAL1        0.0000
    247 H212       10.0700    7.5890  -16.5200 H         1 PAL1        0.0000
    248 H212       11.0010    9.0520  -16.0300 H         1 PAL1        0.0000
    249 C14         7.2220    2.1210   -2.2990 C.3       1 PAL1        0.0000
    250 H14R        7.7010    1.1980   -1.9000 H         1 PAL1        0.0000
    251 H14S        6.9800    2.7760   -1.4320 H         1 PAL1        0.0000
    252 C15         8.2310    2.8390   -3.2140 C.3       1 PAL1        0.0000
    253 H15R        8.5970    2.1300   -3.9900 H         1 PAL1        0.0000
    254 H15S        9.1030    3.1260   -2.5830 H         1 PAL1        0.0000
    255 C16         7.6820    4.1000   -3.9000 C.3       1 PAL1        0.0000
    256 H16R        7.0540    4.6670   -3.1770 H         1 PAL1        0.0000
    257 H16S        7.0380    3.8090   -4.7580 H         1 PAL1        0.0000
    258 C17         8.7980    5.0220   -4.4100 C.3       1 PAL1        0.0000
    259 H17R        9.5080    4.4290   -5.0290 H         1 PAL1        0.0000
    260 H17S        9.3560    5.4100   -3.5270 H         1 PAL1        0.0000
    261 C18         8.2800    6.2080   -5.2400 C.3       1 PAL1        0.0000
    262 H18R        7.5070    6.7540   -4.6540 H         1 PAL1        0.0000
    263 H18S        7.7970    5.8260   -6.1670 H         1 PAL1        0.0000
    264 C19         9.4050    7.1860   -5.6140 C.3       1 PAL1        0.0000
    265 H19R       10.1610    6.6430   -6.2250 H         1 PAL1        0.0000
    266 H19S        9.9070    7.5220   -4.6780 H         1 PAL1        0.0000
    267 C110        8.9340    8.4260   -6.3910 C.3       1 PAL1        0.0000
    268 H110        8.2250    9.0130   -5.7640 H         1 PAL1        0.0000
    269 H110        8.3930    8.1090   -7.3100 H         1 PAL1        0.0000
    270 C111       10.1140    9.3220   -6.7970 C.3       1 PAL1        0.0000
    271 H111       10.7870    8.7320   -7.4600 H         1 PAL1        0.0000
    272 H111       10.6920    9.5840   -5.8800 H         1 PAL1        0.0000
    273 C112        9.7100   10.6140   -7.5120 C.3       1 PAL1        0.0000
    274 H112        9.2000   11.2960   -6.8000 H         1 PAL1        0.0000
    275 H112        9.0260   10.4020   -8.3620 H         1 PAL1        0.0000
    276 H112       10.6060   11.1420   -7.9050 H         1 PAL1        0.0000
@<TRIPOS>BOND
     1  247  245 1 
     2  248  245 1 
     3  245  246 1 
     4  245  242 1 
     5  241  239 1 
     6  243  242 1 
     7  242  239 1 
     8  242  244 1 
     9  239  240 1 
    10  239  236 1 
    11  235  233 1 
    12  237  236 1 
    13  236  233 1 
    14  236  238 1 
    15  233  234 1 
    16  233  230 1 
    17  177  174 1 
    18  147  146 1 
    19  172  171 1 
    20  231  230 1 
    21  230  232 1 
    22  230  227 1 
    23  173  171 1 
    24  229  227 1 
    25  174  171 1 
    26  174  176 1 
    27  174  175 1 
    28  171  168 1 
    29  149  146 1 
    30  146  148 1 
    31  146  143 1 
    32  227  228 1 
    33  227  224 1 
    34  141  140 1 
    35  166  165 1 
    36  225  224 1 
    37  145  143 1 
    38  143  140 1 
    39  143  144 1 
    40  167  165 1 
    41  168  165 1 
    42  168  170 1 
    43  168  169 1 
    44  165  162 1 
    45  140  142 1 
    46  140  137 1 
    47  224  226 1 
    48  224  221 1 
    49  223  221 1 
    50  160  159 1 
    51  275  273 1 
    52  135  134 1 
    53  139  137 1 
    54  221  222 1 
    55  221  218 1 
    56  219  218 1 
    57  276  273 1 
    58  137  134 1 
    59  137  138 1 
    60  162  159 1 
    61  162  164 1 
    62  162  163 1 
    63  217  216 1 
    64  161  159 1 
    65  273  274 1 
    66  273  270 1 
    67  159  156 1 
    68  271  270 1 
    69  216  214 1 
    70  134  136 1 
    71  134  131 1 
    72  218  220 1 
    73  218  214 1 
    74  269  267 1 
    75  129  128 1 
    76  130  128 1 
    77  270  267 1 
    78  270  272 1 
    79  214  215 1 
    80  214  212 1 
    81  158  156 1 
    82  267  268 1 
    83  267  264 1 
    84  128  131 1 
    85  128  125 1 
    86  265  264 1 
    87  154  153 1 
    88  156  157 1 
    89  156  153 1 
    90  263  261 1 
    91  131  133 1 
    92  131  132 1 
    93  202  200 1 
    94   83   82 1 
    95   82   80 1 
    96  124  122 1 
    97  264  261 1 
    98  264  266 1 
    99  123  122 1 
   100  201  200 1 
   101  153  155 1 
   102  153  150 1 
   103   89   87 1 
   104  213  212 2 
   105  115  114 2 
   106  212  211 1 
   107  261  262 1 
   108  261  258 1 
   109   85   84 1 
   110  200  203 1 
   111  200  197 1 
   112  122  125 1 
   113  122  119 1 
   114  259  258 1 
   115  125  126 1 
   116  125  127 1 
   117  257  255 1 
   118   49   47 1 
   119  198  197 1 
   120  152  150 1 
   121  112  111 1 
   122   95   93 1 
   123  258  255 1 
   124  258  260 1 
   125  117  116 1 
   126   80   84 1 
   127   80   47 1 
   128   80   81 1 
   129   87   84 1 
   130   87   88 1 
   131   87   90 1 
   132   48   47 1 
   133   84   86 1 
   134  150  111 1 
   135  150  151 1 
   136  114  116 1 
   137  114  113 1 
   138  197  194 1 
   139  197  199 1 
   140  211  209 1 
   141  196  194 1 
   142   47   45 1 
   143  253  252 1 
   144   91   90 1 
   145  255  252 1 
   146  255  256 1 
   147  195  194 1 
   148  116  119 1 
   149  116  118 1 
   150  111  113 1 
   151  111  108 1 
   152   26   24 1 
   153  119  120 1 
   154  119  121 1 
   155   25   24 1 
   156  107  106 2 
   157  194  191 1 
   158   90   93 1 
   159   90   92 1 
   160   93   94 1 
   161   93   96 1 
   162  101   99 1 
   163  252  254 1 
   164  252  249 1 
   165  210  209 1 
   166   39   38 1 
   167   97   96 1 
   168   37   36 1 
   169   24   36 1 
   170   24   27 1 
   171  209  249 1 
   172  209  206 1 
   173   45   43 1 
   174   45   46 2 
   175   21   19 2 
   176   20   19 1 
   177   96   99 1 
   178   96   98 1 
   179  106  108 1 
   180  106   52 am
   181  103  102 1 
   182   43   42 1 
   183  207  206 1 
   184  108  109 1 
   185  108  110 1 
   186   36   38 1 
   187   36   32 1 
   188   99  102 1 
   189   99  100 1 
   190  189  188 1 
   191  249  250 1 
   192  249  251 1 
   193   38   40 1 
   194   38   41 1 
   195  190  188 1 
   196   27   22 1 
   197  191  188 1 
   198  191  193 1 
   199  191  192 1 
   200   51   50 1 
   201  206  208 1 
   202  206  204 1 
   203   19   17 1 
   204   19   18 1 
   205  188  185 1 
   206  102  105 1 
   207  102  104 1 
   208   16   15 1 
   209  205  204 2 
   210   52   50 1 
   211   52   53 1 
   212   50   42 1 
   213   50    9 1 
   214   42   15 1 
   215   42   44 1 
   216   33   32 1 
   217  204   78 am
   218   32   34 1 
   219   32   28 1 
   220   62   61 1 
   221   77   76 1 
   222  184  182 1 
   223   22   18 1 
   224   22   23 1 
   225   22   28 1 
   226   15   17 1 
   227   15    6 1 
   228   65   67 2 
   229  183  182 1 
   230   34   35 1 
   231  185  182 1 
   232  185  186 1 
   233  185  187 1 
   234   78   76 1 
   235   78   79 1 
   236   11    9 1 
   237   11   12 1 
   238   28   29 1 
   239   28   30 1 
   240  182  178 1 
   241   76   61 1 
   242   76   68 1 
   243   61   60 1 
   244   61   63 1 
   245   60   58 1 
   246    9    7 1 
   247    9   10 1 
   248   55   54 1 
   249    7    6 1 
   250    5    4 1 
   251   66   67 1 
   252    6    4 1 
   253    6    8 1 
   254   74   73 1 
   255   13   12 1 
   256   67   63 1 
   257   67   64 1 
   258   12   58 1 
   259   12   14 1 
   260   58   54 1 
   261   58   59 1 
   262   54   68 1 
   263   54   56 1 
   264   71   72 2 
   265   71   70 1 
   266   71   73 1 
   267   68   70 1 
   268   68   69 1 
   269   30   31 1 
   270    4    1 1 
   271    4    2 1 
   272  178   73 1 
   273  178  179 1 
   274  178  180 1 
   275   73   75 1 
   276   57   56 1 
   277  181  180 1 
   278    3    2 1 
