@<TRIPOS>MOLECULE
C:\Users\Praveer\PycharmProjects\pdb_to_mol2_converter\data\pdb\palipa.pdb
  256   257     0     0     0
SMALL
GASTEIGER

@<TRIPOS>ATOM
      1 HB6S       -8.0050    2.2850    0.9000 H         1 PAL1        0.0000
      2 OB6        -6.8000    0.8360    1.8000 O.3       1 PAL1        0.0000
      3 HOB6       -5.9410    0.4400    1.5960 H         1 PAL1        0.0000
      4 CB6        -7.1200    1.6500    0.6630 C.3       1 PAL1        0.0000
      5 HB6R       -7.4070    0.9990   -0.1930 H         1 PAL1        0.0000
      6 CB5        -5.9320    2.5150    0.2810 C.3       1 PAL1        0.0000
      7 OB5        -4.7640    1.6850    0.1400 O.3       1 PAL1        0.0000
      8 HB5        -5.7750    3.2420    1.1150 H         1 PAL1        0.0000
      9 CB1        -3.5820    2.4750   -0.0210 C.3       1 PAL1        0.0000
     10 HB1        -3.4590    3.1620    0.8470 H         1 PAL1        0.0000
     11 OA6        -2.4370    1.6800   -0.1580 O.3       1 PAL1        0.0000
     12 CA6        -2.1670    0.8860    0.9960 C.3       1 PAL1        0.0000
     13 HA6R       -2.6320   -0.1170    0.8730 H         1 PAL1        0.0000
     14 HA6S       -2.5880    1.3600    1.9100 H         1 PAL1        0.0000
     15 CB4        -6.0990    3.2790   -1.0190 C.3       1 PAL1        0.0000
     16 HB4        -6.2170    2.5290   -1.8410 H         1 PAL1        0.0000
     17 OB4        -7.2420    4.1100   -0.8540 O.3       1 PAL1        0.0000
     18 PB         -8.4880    4.1520   -1.9430 P.3       1 PAL1        0.0000
     19 OPB4       -8.4750    5.5810   -2.4770 O.3       1 PAL1        0.0000
     20 OPB3       -9.7190    3.8050   -1.1210 O.3       1 PAL1        0.0000
     21 OPB2       -8.1630    3.1220   -3.0180 O.2       1 PAL1        0.0000
     22 CB3        -4.8740    4.1220   -1.3010 C.3       1 PAL1        0.0000
     23 OB3        -4.9850    4.7030   -2.5950 O.3       1 PAL1        0.0000
     24 HB3        -4.7560    4.8790   -0.4840 H         1 PAL1        0.0000
     25 C71        -5.5260    5.9270   -2.6200 C.2       1 PAL1        0.0000
     26 O71        -5.2750    6.7840   -1.7910 O.2       1 PAL1        0.0000
     27 C72        -5.7980    6.2260   -4.0880 C.3       1 PAL1        0.0000
     28 H72R       -6.8080    5.8170   -4.3060 H         1 PAL1        0.0000
     29 H72S       -5.0560    5.7080   -4.7240 H         1 PAL1        0.0000
     30 CB2        -3.6270    3.2770   -1.3000 C.3       1 PAL1        0.0000
     31 HB2        -3.7190    2.5460   -2.1460 H         1 PAL1        0.0000
     32 NB2        -2.4050    4.0690   -1.4660 N.am      1 PAL1        0.0000
     33 HNB2       -2.0960    4.5500   -0.6580 H         1 PAL1        0.0000
     34 CA4         0.0060    2.1370    1.1800 C.3       1 PAL1        0.0000
     35 HA4        -0.2890    2.6900    0.2570 H         1 PAL1        0.0000
     36 OA4        -0.4740    2.8680    2.3070 O.3       1 PAL1        0.0000
     37 HOA4       -0.1950    3.7850    2.1580 H         1 PAL1        0.0000
     38 CA5        -0.6610    0.7690    1.1270 C.3       1 PAL1        0.0000
     39 HA5        -0.4240    0.2070    2.0600 H         1 PAL1        0.0000
     40 OA5        -0.1840   -0.0120    0.0190 O.3       1 PAL1        0.0000
     41 CA1         1.2480   -0.1780   -0.0130 C.3       1 PAL1        0.0000
     42 HA1         1.4370   -0.6790   -0.9960 H         1 PAL1        0.0000
     43 OA1         1.6950   -1.0100    1.0480 O.3       1 PAL1        0.0000
     44 OPA2        3.0310   -2.8740    2.1180 O.3       1 PAL1        0.0000
     45 OPA3        2.6030   -2.8790   -0.3940 O.2       1 PAL1        0.0000
     46 OPA4        4.1970   -1.1900    0.6090 O.3       1 PAL1        0.0000
     47 PA          2.9580   -2.0610    0.8370 P.3       1 PAL1        0.0000
     48 CA3         1.5200    2.0020    1.1710 C.3       1 PAL1        0.0000
     49 HA3         1.7920    1.3840    2.0630 H         1 PAL1        0.0000
     50 OA3         2.3710    3.1560    1.2140 O.3       1 PAL1        0.0000
     51 C31         2.0080    4.4020    1.1740 C.2       1 PAL1        0.0000
     52 O31         0.8470    4.8410    1.2130 O.2       1 PAL1        0.0000
     53 C32         3.2360    5.2620    1.4180 C.3       1 PAL1        0.0000
     54 H32R        4.0040    4.9790    0.6650 H         1 PAL1        0.0000
     55 H32S        3.6330    5.0320    2.4290 H         1 PAL1        0.0000
     56 CA2         1.9130    1.1920   -0.0470 C.3       1 PAL1        0.0000
     57 HA2         1.4830    1.7180   -0.9390 H         1 PAL1        0.0000
     58 NA2         3.3360    1.0650   -0.2640 N.am      1 PAL1        0.0000
     59 HNA2        3.6980    0.1760    0.1030 H         1 PAL1        0.0000
     60 C73        -5.7370    7.7320   -4.3230 C.3       1 PAL1        0.0000
     61 H73R       -6.3460    8.2680   -3.5540 H         1 PAL1        0.0000
     62 O73        -6.3050    7.9550   -5.5990 O.3       1 PAL1        0.0000
     63 HO73       -7.1540    7.5030   -5.6940 H         1 PAL1        0.0000
     64 C74        -4.2870    8.2580   -4.3190 C.3       1 PAL1        0.0000
     65 H74R       -3.7330    7.8210   -5.1740 H         1 PAL1        0.0000
     66 H74S       -3.8000    7.8870   -3.3930 H         1 PAL1        0.0000
     67 C75        -4.1550    9.7840   -4.3380 C.3       1 PAL1        0.0000
     68 H75R       -5.0880   10.2230   -3.9230 H         1 PAL1        0.0000
     69 H75S       -4.0470   10.1510   -5.3790 H         1 PAL1        0.0000
     70 C76        -2.9940   10.2620   -3.4690 C.3       1 PAL1        0.0000
     71 H76R       -2.0300    9.9060   -3.8920 H         1 PAL1        0.0000
     72 H76S       -3.1060    9.7970   -2.4620 H         1 PAL1        0.0000
     73 C77        -3.0240   11.7800   -3.3190 C.3       1 PAL1        0.0000
     74 H77R       -3.9920   12.0750   -2.8490 H         1 PAL1        0.0000
     75 H77S       -2.9890   12.2520   -4.3290 H         1 PAL1        0.0000
     76 C78        -1.8590   12.2730   -2.4830 C.3       1 PAL1        0.0000
     77 H78R       -0.9270   11.9570   -3.0010 H         1 PAL1        0.0000
     78 H78S       -1.8700   11.7710   -1.4870 H         1 PAL1        0.0000
     79 C79        -1.8250   13.7860   -2.3450 C.3       1 PAL1        0.0000
     80 H79R       -2.6830   14.1310   -1.7230 H         1 PAL1        0.0000
     81 H79S       -1.9590   14.2340   -3.3640 H         1 PAL1        0.0000
     82 C710       -0.4910   14.2540   -1.7760 C.3       1 PAL1        0.0000
     83 H710        0.3310   14.0130   -2.4810 H         1 PAL1        0.0000
     84 H710       -0.2700   13.7340   -0.8090 H         1 PAL1        0.0000
     85 H710       -0.5050   15.3440   -1.5960 H         1 PAL1        0.0000
     86 C51        -1.6030    4.0490   -2.5460 C.2       1 PAL1        0.0000
     87 O51        -1.9370    3.5880   -3.6290 O.2       1 PAL1        0.0000
     88 C52        -0.1990    4.5860   -2.3300 C.3       1 PAL1        0.0000
     89 H52R        0.4040    3.7620   -1.8910 H         1 PAL1        0.0000
     90 H52S       -0.2220    5.4300   -1.6150 H         1 PAL1        0.0000
     91 C53         0.4710    5.0230   -3.6500 C.3       1 PAL1        0.0000
     92 H53R        0.3980    4.1740   -4.3760 H         1 PAL1        0.0000
     93 O53         1.8340    5.3270   -3.3120 O.3       1 PAL1        0.0000
     94 C61         2.7440    4.9630   -4.2140 C.2       1 PAL1        0.0000
     95 O61         2.4980    4.5150   -5.3310 O.2       1 PAL1        0.0000
     96 C62         4.1490    5.2340   -3.6920 C.3       1 PAL1        0.0000
     97 H62R        4.8610    4.6670   -4.3210 H         1 PAL1        0.0000
     98 H62S        4.2000    4.8370   -2.6600 H         1 PAL1        0.0000
     99 C63         4.5360    6.7250   -3.6610 C.3       1 PAL1        0.0000
    100 H63R        5.5370    6.8180   -3.1780 H         1 PAL1        0.0000
    101 H63S        3.8110    7.2620   -3.0190 H         1 PAL1        0.0000
    102 C64         4.6010    7.3800   -5.0450 C.3       1 PAL1        0.0000
    103 H64R        3.6270    7.2630   -5.5660 H         1 PAL1        0.0000
    104 H64S        5.3680    6.8590   -5.6590 H         1 PAL1        0.0000
    105 C65         4.9450    8.8720   -4.9550 C.3       1 PAL1        0.0000
    106 H65R        5.8980    8.9840   -4.3890 H         1 PAL1        0.0000
    107 H65S        4.1500    9.3980   -4.3820 H         1 PAL1        0.0000
    108 C66         5.1100    9.5460   -6.3230 C.3       1 PAL1        0.0000
    109 H66R        4.1750    9.4440   -6.9190 H         1 PAL1        0.0000
    110 H66S        5.9240    9.0280   -6.8790 H         1 PAL1        0.0000
    111 C67         5.4450   11.0350   -6.1770 C.3       1 PAL1        0.0000
    112 H67R        6.0790   11.1870   -5.2730 H         1 PAL1        0.0000
    113 H67S        4.4940   11.5900   -6.0120 H         1 PAL1        0.0000
    114 C68         6.1860   11.6300   -7.3800 C.3       1 PAL1        0.0000
    115 H68R        6.1900   10.9160   -8.2320 H         1 PAL1        0.0000
    116 H68S        7.2430   11.8070   -7.0910 H         1 PAL1        0.0000
    117 C69         5.5890   12.9680   -7.8260 C.3       1 PAL1        0.0000
    118 H69R        5.6100   13.6620   -6.9550 H         1 PAL1        0.0000
    119 H69S        4.5270   12.8190   -8.1200 H         1 PAL1        0.0000
    120 C610        6.3620   13.5940   -8.9910 C.3       1 PAL1        0.0000
    121 H610        6.1960   12.9900   -9.9100 H         1 PAL1        0.0000
    122 H610        7.4520   13.5630   -8.7610 H         1 PAL1        0.0000
    123 C611        5.9760   15.0520   -9.2620 C.3       1 PAL1        0.0000
    124 H611        6.1510   15.6480   -8.3360 H         1 PAL1        0.0000
    125 H611        4.8880   15.1090   -9.4950 H         1 PAL1        0.0000
    126 C612        6.7830   15.6590  -10.4120 C.3       1 PAL1        0.0000
    127 H612        6.5460   15.1400  -11.3660 H         1 PAL1        0.0000
    128 H612        7.8720   15.5470  -10.2170 H         1 PAL1        0.0000
    129 H612        6.5570   16.7400  -10.5290 H         1 PAL1        0.0000
    130 C54        -0.2120    6.2710   -4.2690 C.3       1 PAL1        0.0000
    131 H54R       -0.3000    7.0650   -3.4970 H         1 PAL1        0.0000
    132 H54S       -1.2410    5.9760   -4.5770 H         1 PAL1        0.0000
    133 C55         0.5120    6.8510   -5.4970 C.3       1 PAL1        0.0000
    134 H55R        0.7230    6.0200   -6.2100 H         1 PAL1        0.0000
    135 H55S        1.4820    7.2850   -5.1690 H         1 PAL1        0.0000
    136 C56        -0.2800    7.9270   -6.2450 C.3       1 PAL1        0.0000
    137 H56R       -0.4470    8.7940   -5.5690 H         1 PAL1        0.0000
    138 H56S       -1.2790    7.5170   -6.5240 H         1 PAL1        0.0000
    139 C57         0.4310    8.3740   -7.5310 C.3       1 PAL1        0.0000
    140 H57R       -0.1830    8.0510   -8.4030 H         1 PAL1        0.0000
    141 H57S        1.4120    7.8570   -7.6280 H         1 PAL1        0.0000
    142 C58         0.6530    9.8860   -7.6270 C.3       1 PAL1        0.0000
    143 H58R        1.4280   10.2030   -6.8950 H         1 PAL1        0.0000
    144 H58S       -0.2920   10.4030   -7.3500 H         1 PAL1        0.0000
    145 C59         1.0530   10.3030   -9.0520 C.3       1 PAL1        0.0000
    146 H59R        0.2690    9.9350   -9.7540 H         1 PAL1        0.0000
    147 H59S        2.0070    9.8010   -9.3300 H         1 PAL1        0.0000
    148 C510        1.1840   11.8240   -9.1970 C.3       1 PAL1        0.0000
    149 H510        1.9680   12.1910   -8.4980 H         1 PAL1        0.0000
    150 H510        0.2160   12.2880   -8.8970 H         1 PAL1        0.0000
    151 C511        1.5290   12.3090  -10.6120 C.3       1 PAL1        0.0000
    152 H511        0.8030   11.8780  -11.3390 H         1 PAL1        0.0000
    153 H511        2.5410   11.9320  -10.8880 H         1 PAL1        0.0000
    154 C512        1.4980   13.8380  -10.7170 C.3       1 PAL1        0.0000
    155 H512        2.1680   14.2930   -9.9550 H         1 PAL1        0.0000
    156 H512        0.4680   14.2150  -10.5370 H         1 PAL1        0.0000
    157 H512        1.8240   14.1820  -11.7210 H         1 PAL1        0.0000
    158 C33         2.9290    6.7640    1.2950 C.3       1 PAL1        0.0000
    159 H33R        3.8630    7.3340    1.5160 H         1 PAL1        0.0000
    160 O33         1.9680    7.1450    2.2670 O.3       1 PAL1        0.0000
    161 HO33        1.1260    6.6860    2.1690 H         1 PAL1        0.0000
    162 C34         2.4500    7.1610   -0.1140 C.3       1 PAL1        0.0000
    163 H34R        1.4850    6.6630   -0.3520 H         1 PAL1        0.0000
    164 H34S        3.2030    6.7840   -0.8410 H         1 PAL1        0.0000
    165 C35         2.2610    8.6680   -0.3290 C.3       1 PAL1        0.0000
    166 H35R        3.0850    9.2460    0.1440 H         1 PAL1        0.0000
    167 H35S        1.3090    8.9780    0.1570 H         1 PAL1        0.0000
    168 C36         2.2110    9.0160   -1.8130 C.3       1 PAL1        0.0000
    169 H36R        1.7180    8.1860   -2.3700 H         1 PAL1        0.0000
    170 H36S        3.2490    9.1020   -2.1970 H         1 PAL1        0.0000
    171 C37         1.4620   10.3130   -2.0860 C.3       1 PAL1        0.0000
    172 H37R        1.9010   11.1300   -1.4710 H         1 PAL1        0.0000
    173 H37S        0.4100   10.1760   -1.7460 H         1 PAL1        0.0000
    174 C38         1.4570   10.6370   -3.5850 C.3       1 PAL1        0.0000
    175 H38R        0.3910   10.6480   -3.9010 H         1 PAL1        0.0000
    176 H38S        1.9320    9.8110   -4.1620 H         1 PAL1        0.0000
    177 C39         2.1060   11.9830   -3.9330 C.3       1 PAL1        0.0000
    178 H39R        3.1720   11.8450   -4.2330 H         1 PAL1        0.0000
    179 H39S        2.1240   12.6210   -3.0220 H         1 PAL1        0.0000
    180 C310        1.3240   12.7200   -5.0240 C.3       1 PAL1        0.0000
    181 H310        0.2730   12.3710   -5.0530 H         1 PAL1        0.0000
    182 H310        1.7650   12.5580   -6.0280 H         1 PAL1        0.0000
    183 H310        1.2930   13.8120   -4.8250 H         1 PAL1        0.0000
    184 C11         4.0570    1.7090   -1.1740 C.2       1 PAL1        0.0000
    185 O11         3.8860    2.8990   -1.4160 O.2       1 PAL1        0.0000
    186 C12         5.0390    0.8510   -1.9670 C.3       1 PAL1        0.0000
    187 H12R        4.4440    0.0890   -2.5130 H         1 PAL1        0.0000
    188 H12S        5.6890    0.2990   -1.2600 H         1 PAL1        0.0000
    189 C13         5.8680    1.7020   -2.9570 C.3       1 PAL1        0.0000
    190 H13R        5.3140    2.6360   -3.2010 H         1 PAL1        0.0000
    191 O13         6.1650    0.9210   -4.1310 O.3       1 PAL1        0.0000
    192 C21         5.6830    1.4040   -5.2820 C.2       1 PAL1        0.0000
    193 O21         5.0060    2.4190   -5.3950 O.2       1 PAL1        0.0000
    194 C22         6.0240    0.4540   -6.4790 C.3       1 PAL1        0.0000
    195 H22S        6.3760   -0.5050   -6.0390 H         1 PAL1        0.0000
    196 O22         4.9240    0.1570   -7.3580 O.3       1 PAL1        0.0000
    197 HO22        4.3190    0.8920   -7.5270 H         1 PAL1        0.0000
    198 C23         7.1770    1.0410   -7.3520 C.3       1 PAL1        0.0000
    199 H23R        7.4220    0.2700   -8.1190 H         1 PAL1        0.0000
    200 H23S        8.0790    1.1730   -6.7150 H         1 PAL1        0.0000
    201 C24         6.8890    2.3650   -8.1020 C.3       1 PAL1        0.0000
    202 H24R        6.6230    3.1740   -7.3870 H         1 PAL1        0.0000
    203 H24S        6.0140    2.2080   -8.7720 H         1 PAL1        0.0000
    204 C25         8.0890    2.8150   -8.9620 C.3       1 PAL1        0.0000
    205 H25R        8.4930    1.9120   -9.4760 H         1 PAL1        0.0000
    206 H25S        8.8920    3.2060   -8.2990 H         1 PAL1        0.0000
    207 C26         7.7660    3.8550  -10.0550 C.3       1 PAL1        0.0000
    208 H26R        7.3700    4.7880   -9.5950 H         1 PAL1        0.0000
    209 H26S        6.9700    3.4420  -10.7140 H         1 PAL1        0.0000
    210 C27         8.9970    4.2040  -10.9170 C.3       1 PAL1        0.0000
    211 H27R        9.5460    3.2670  -11.1650 H         1 PAL1        0.0000
    212 H27S        9.6800    4.8360  -10.3070 H         1 PAL1        0.0000
    213 C28         8.6730    4.9320  -12.2360 C.3       1 PAL1        0.0000
    214 H28R        7.6650    5.3990  -12.1670 H         1 PAL1        0.0000
    215 H28S        8.6310    4.1790  -13.0570 H         1 PAL1        0.0000
    216 C29         9.6960    6.0260  -12.6000 C.3       1 PAL1        0.0000
    217 H29R       10.7160    5.5820  -12.6180 H         1 PAL1        0.0000
    218 H29S        9.6850    6.8100  -11.8100 H         1 PAL1        0.0000
    219 C210        9.4130    6.6860  -13.9610 C.3       1 PAL1        0.0000
    220 H210        8.4120    7.1720  -13.9280 H         1 PAL1        0.0000
    221 H210        9.3790    5.8940  -14.7430 H         1 PAL1        0.0000
    222 C211       10.4620    7.7310  -14.3750 C.3       1 PAL1        0.0000
    223 H211       11.4610    7.2390  -14.4090 H         1 PAL1        0.0000
    224 H211       10.5100    8.5300  -13.6000 H         1 PAL1        0.0000
    225 C212       10.1760    8.3710  -15.7390 C.3       1 PAL1        0.0000
    226 H212        9.2330    8.9590  -15.7060 H         1 PAL1        0.0000
    227 H212       10.0720    7.5890  -16.5220 H         1 PAL1        0.0000
    228 H212       11.0030    9.0520  -16.0350 H         1 PAL1        0.0000
    229 C14         7.2000    2.1200   -2.2980 C.3       1 PAL1        0.0000
    230 H14R        7.6870    1.2040   -1.8960 H         1 PAL1        0.0000
    231 H14S        6.9540    2.7770   -1.4350 H         1 PAL1        0.0000
    232 C15         8.2100    2.8460   -3.2090 C.3       1 PAL1        0.0000
    233 H15R        8.5970    2.1420   -3.9800 H         1 PAL1        0.0000
    234 H15S        9.0720    3.1450   -2.5700 H         1 PAL1        0.0000
    235 C16         7.6650    4.1060   -3.8950 C.3       1 PAL1        0.0000
    236 H16R        7.0410    4.6730   -3.1690 H         1 PAL1        0.0000
    237 H16S        7.0050    3.8180   -4.7430 H         1 PAL1        0.0000
    238 C17         8.7890    5.0160   -4.4150 C.3       1 PAL1        0.0000
    239 H17R        9.4920    4.4150   -5.0340 H         1 PAL1        0.0000
    240 H17S        9.3590    5.4020   -3.5390 H         1 PAL1        0.0000
    241 C18         8.2820    6.2070   -5.2430 C.3       1 PAL1        0.0000
    242 H18R        7.5070    6.7450   -4.6540 H         1 PAL1        0.0000
    243 H18S        7.8010    5.8260   -6.1720 H         1 PAL1        0.0000
    244 C19         9.4080    7.1910   -5.6060 C.3       1 PAL1        0.0000
    245 H19R       10.1710    6.6570   -6.2170 H         1 PAL1        0.0000
    246 H19S        9.9040    7.5320   -4.6690 H         1 PAL1        0.0000
    247 C110        8.9440    8.4300   -6.3850 C.3       1 PAL1        0.0000
    248 H110        8.2320    9.0150   -5.7610 H         1 PAL1        0.0000
    249 H110        8.3970    8.1040   -7.2980 H         1 PAL1        0.0000
    250 C111       10.1290    9.3210   -6.8000 C.3       1 PAL1        0.0000
    251 H111       10.8000    8.7280   -7.4630 H         1 PAL1        0.0000
    252 H111       10.7190    9.5910   -5.8930 H         1 PAL1        0.0000
    253 C112        9.7310   10.6070   -7.5200 C.3       1 PAL1        0.0000
    254 H112        9.2050   11.2830   -6.8140 H         1 PAL1        0.0000
    255 H112        9.0580   10.3840   -8.3770 H         1 PAL1        0.0000
    256 H112       10.6250   11.1460   -7.9030 H         1 PAL1        0.0000
@<TRIPOS>BOND
     1  227  225 1 
     2  228  225 1 
     3  225  226 1 
     4  225  222 1 
     5  221  219 1 
     6  223  222 1 
     7  222  219 1 
     8  222  224 1 
     9  219  220 1 
    10  219  216 1 
    11  215  213 1 
    12  217  216 1 
    13  216  213 1 
    14  216  218 1 
    15  213  214 1 
    16  213  210 1 
    17  157  154 1 
    18  127  126 1 
    19  152  151 1 
    20  211  210 1 
    21  210  212 1 
    22  210  207 1 
    23  153  151 1 
    24  154  151 1 
    25  154  156 1 
    26  154  155 1 
    27  209  207 1 
    28  151  148 1 
    29  129  126 1 
    30  126  128 1 
    31  126  123 1 
    32  207  208 1 
    33  207  204 1 
    34  121  120 1 
    35  146  145 1 
    36  125  123 1 
    37  205  204 1 
    38  147  145 1 
    39  123  120 1 
    40  123  124 1 
    41  148  145 1 
    42  148  150 1 
    43  148  149 1 
    44  145  142 1 
    45  120  122 1 
    46  120  117 1 
    47  204  206 1 
    48  204  201 1 
    49  203  201 1 
    50  140  139 1 
    51  255  253 1 
    52  115  114 1 
    53  119  117 1 
    54  199  198 1 
    55  201  202 1 
    56  201  198 1 
    57  256  253 1 
    58  117  114 1 
    59  117  118 1 
    60  141  139 1 
    61  142  139 1 
    62  142  144 1 
    63  142  143 1 
    64  139  136 1 
    65  197  196 1 
    66  253  254 1 
    67  253  250 1 
    68  251  250 1 
    69  114  116 1 
    70  114  111 1 
    71  196  194 1 
    72  198  200 1 
    73  198  194 1 
    74  249  247 1 
    75  109  108 1 
    76  110  108 1 
    77  250  247 1 
    78  250  252 1 
    79  138  136 1 
    80  194  195 1 
    81  194  192 1 
    82  247  248 1 
    83  247  244 1 
    84  108  111 1 
    85  108  105 1 
    86  136  137 1 
    87  136  133 1 
    88  245  244 1 
    89  134  133 1 
    90  111  113 1 
    91  111  112 1 
    92  243  241 1 
    93  182  180 1 
    94   63   62 1 
    95  104  102 1 
    96  244  241 1 
    97  244  246 1 
    98   62   60 1 
    99  103  102 1 
   100  133  135 1 
   101  133  130 1 
   102  193  192 2 
   103   69   67 1 
   104   95   94 2 
   105  192  191 1 
   106  241  242 1 
   107  241  238 1 
   108   65   64 1 
   109  181  180 1 
   110  102  105 1 
   111  102   99 1 
   112  239  238 1 
   113  180  183 1 
   114  180  177 1 
   115  105  106 1 
   116  105  107 1 
   117  237  235 1 
   118   29   27 1 
   119  132  130 1 
   120  238  235 1 
   121  238  240 1 
   122   92   91 1 
   123   67   64 1 
   124   67   68 1 
   125   67   70 1 
   126   75   73 1 
   127   60   64 1 
   128   60   27 1 
   129   60   61 1 
   130   97   96 1 
   131   64   66 1 
   132   28   27 1 
   133  130   91 1 
   134  130  131 1 
   135  178  177 1 
   136   94   96 1 
   137   94   93 1 
   138  176  174 1 
   139  191  189 1 
   140   27   25 1 
   141  233  232 1 
   142  177  174 1 
   143  177  179 1 
   144  175  174 1 
   145  235  232 1 
   146  235  236 1 
   147   71   70 1 
   148   96   99 1 
   149   96   98 1 
   150   99  100 1 
   151   99  101 1 
   152   91   93 1 
   153   91   88 1 
   154   87   86 2 
   155  174  171 1 
   156   70   73 1 
   157   70   72 1 
   158   81   79 1 
   159   73   74 1 
   160   73   76 1 
   161  232  234 1 
   162  232  229 1 
   163  190  189 1 
   164   21   18 2 
   165   77   76 1 
   166  189  229 1 
   167  189  186 1 
   168   25   23 1 
   169   25   26 2 
   170   23   22 1 
   171   86   88 1 
   172   86   32 am
   173  187  186 1 
   174   76   79 1 
   175   76   78 1 
   176   83   82 1 
   177   19   18 1 
   178  169  168 1 
   179   79   82 1 
   180   79   80 1 
   181   88   89 1 
   182   88   90 1 
   183  229  230 1 
   184  229  231 1 
   185  170  168 1 
   186   31   30 1 
   187  171  168 1 
   188  171  173 1 
   189  171  172 1 
   190  186  188 1 
   191  186  184 1 
   192   18   20 1 
   193   18   17 1 
   194   16   15 1 
   195  168  165 1 
   196   82   85 1 
   197   82   84 1 
   198   32   30 1 
   199   32   33 1 
   200  185  184 2 
   201   22   30 1 
   202   22   15 1 
   203   22   24 1 
   204   30    9 1 
   205  184   58 am
   206   15   17 1 
   207   15    6 1 
   208   42   41 1 
   209   57   56 1 
   210  164  162 1 
   211   45   47 2 
   212  163  162 1 
   213  165  162 1 
   214  165  166 1 
   215  165  167 1 
   216   58   56 1 
   217   58   59 1 
   218    5    4 1 
   219   11    9 1 
   220   11   12 1 
   221  162  158 1 
   222   56   41 1 
   223   56   48 1 
   224    9    7 1 
   225    9   10 1 
   226   41   40 1 
   227   41   43 1 
   228   40   38 1 
   229    7    6 1 
   230   35   34 1 
   231    6    4 1 
   232    6    8 1 
   233   46   47 1 
   234    4    1 1 
   235    4    2 1 
   236   54   53 1 
   237   47   43 1 
   238   47   44 1 
   239   13   12 1 
   240   12   38 1 
   241   12   14 1 
   242   38   34 1 
   243   38   39 1 
   244   48   34 1 
   245   48   50 1 
   246   48   49 1 
   247   51   52 2 
   248   51   50 1 
   249   51   53 1 
   250   34   36 1 
   251  158   53 1 
   252  158  159 1 
   253  158  160 1 
   254   53   55 1 
   255    3    2 1 
   256   37   36 1 
   257  161  160 1 
