@<TRIPOS>MOLECULE
C:\Users\Praveer\PycharmProjects\pdb_to_mol2_converter\data\pdb\palipb.pdb
  226   227     0     0     0
SMALL
GASTEIGER

@<TRIPOS>ATOM
      1 HB6S       -7.9950    2.3330    0.8760 H         1 PAL1        0.0000
      2 OB6        -6.8540    0.8250    1.7770 O.3       1 PAL1        0.0000
      3 HOB6       -6.0680    0.3210    1.5410 H         1 PAL1        0.0000
      4 CB6        -7.1320    1.6650    0.6490 C.3       1 PAL1        0.0000
      5 HB6R       -7.4210    1.0380   -0.2250 H         1 PAL1        0.0000
      6 CB5        -5.9230    2.4970    0.2820 C.3       1 PAL1        0.0000
      7 OB5        -4.7930    1.6220    0.1360 O.3       1 PAL1        0.0000
      8 HB5        -5.7320    3.2160    1.1160 H         1 PAL1        0.0000
      9 CB1        -3.5870    2.3650   -0.0320 C.3       1 PAL1        0.0000
     10 HB1        -3.4100    3.0350    0.8410 H         1 PAL1        0.0000
     11 OA6        -2.4840    1.5200   -0.2040 O.3       1 PAL1        0.0000
     12 CA6        -2.1660    0.7500    0.9570 C.3       1 PAL1        0.0000
     13 HA6R       -2.5640   -0.2830    0.8410 H         1 PAL1        0.0000
     14 HA6S       -2.6130    1.1870    1.8760 H         1 PAL1        0.0000
     15 CB4        -6.0920    3.2620   -1.0160 C.3       1 PAL1        0.0000
     16 HB4        -6.2330    2.5140   -1.8350 H         1 PAL1        0.0000
     17 OB4        -7.2160    4.1150   -0.8370 O.3       1 PAL1        0.0000
     18 PB         -8.4930    4.1480   -1.8920 P.3       1 PAL1        0.0000
     19 OPB4       -8.4900    5.5660   -2.4500 O.3       1 PAL1        0.0000
     20 OPB3       -9.7030    3.8240   -1.0270 O.3       1 PAL1        0.0000
     21 OPB2       -8.2080    3.0970   -2.9550 O.2       1 PAL1        0.0000
     22 CB3        -4.8580    4.0740   -1.3160 C.3       1 PAL1        0.0000
     23 OB3        -4.9860    4.6560   -2.6120 O.3       1 PAL1        0.0000
     24 HB3        -4.7150    4.8370   -0.5090 H         1 PAL1        0.0000
     25 C71        -5.5550    5.8690   -2.6430 C.2       1 PAL1        0.0000
     26 O71        -5.3000    6.7420   -1.8030 O.2       1 PAL1        0.0000
     27 C72        -5.8490    6.1850   -4.1020 C.3       1 PAL1        0.0000
     28 H72R       -6.8890    5.8420   -4.2920 H         1 PAL1        0.0000
     29 H72S       -5.1640    5.6120   -4.7560 H         1 PAL1        0.0000
     30 CB2        -3.6360    3.1860   -1.3030 C.3       1 PAL1        0.0000
     31 HB2        -3.7380    2.4670   -2.1560 H         1 PAL1        0.0000
     32 NB2        -2.4060    3.9510   -1.4450 N.am      1 PAL1        0.0000
     33 HNB2       -2.0680    4.3600   -0.6100 H         1 PAL1        0.0000
     34 CA4        -0.0050    2.0780    1.1490 C.3       1 PAL1        0.0000
     35 HA4        -0.3160    2.6410    0.2370 H         1 PAL1        0.0000
     36 OA4        -0.4490    2.8100    2.2890 O.3       1 PAL1        0.0000
     37 HOA4        0.3330    3.2600    2.6220 H         1 PAL1        0.0000
     38 CA5        -0.6580    0.7080    1.0750 C.3       1 PAL1        0.0000
     39 HA5        -0.4040    0.1050    1.9760 H         1 PAL1        0.0000
     40 OA5        -0.1640    0.0500   -0.0970 O.3       1 PAL1        0.0000
     41 CA1         1.2440   -0.2130   -0.0430 C.3       1 PAL1        0.0000
     42 HA1         1.4780   -0.7140   -1.0140 H         1 PAL1        0.0000
     43 OA1         1.5660   -1.0330    1.0750 O.3       1 PAL1        0.0000
     44 OPA2        2.7350   -2.9860    2.1730 O.3       1 PAL1        0.0000
     45 OPA3        2.4340   -2.8820   -0.3710 O.2       1 PAL1        0.0000
     46 OPA4        4.0510   -1.3090    0.7800 O.3       1 PAL1        0.0000
     47 PA          2.7800   -2.1360    0.9060 P.3       1 PAL1        0.0000
     48 CA3         1.5090    1.9590    1.1330 C.3       1 PAL1        0.0000
     49 HA3         1.8460    1.4400    2.0620 H         1 PAL1        0.0000
     50 OA3         2.1260    3.2450    1.1000 O.3       1 PAL1        0.0000
     51 HOA3        2.8430    3.1880    0.4470 H         1 PAL1        0.0000
     52 CA2         1.9400    1.1300   -0.0530 C.3       1 PAL1        0.0000
     53 HA2         1.5490    1.6460   -0.9680 H         1 PAL1        0.0000
     54 NA2         3.3610    0.9690   -0.2430 N.am      1 PAL1        0.0000
     55 HNA2        3.6910    0.0540    0.0730 H         1 PAL1        0.0000
     56 C73        -5.7200    7.6920   -4.3430 C.3       1 PAL1        0.0000
     57 H73R       -6.3320    8.2450   -3.5910 H         1 PAL1        0.0000
     58 O73        -6.2460    7.9680   -5.6310 O.3       1 PAL1        0.0000
     59 HO73       -7.1710    7.7210   -5.7170 H         1 PAL1        0.0000
     60 C74        -4.2590    8.1810   -4.2800 C.3       1 PAL1        0.0000
     61 H74R       -3.6720    7.7000   -5.0920 H         1 PAL1        0.0000
     62 H74S       -3.8190    7.8450   -3.3180 H         1 PAL1        0.0000
     63 C75        -4.0790    9.7070   -4.3440 C.3       1 PAL1        0.0000
     64 H75R       -4.8810   10.2060   -3.7560 H         1 PAL1        0.0000
     65 H75S       -4.1860   10.0240   -5.4050 H         1 PAL1        0.0000
     66 C76        -2.7090   10.1070   -3.7800 C.3       1 PAL1        0.0000
     67 H76R       -2.0150    9.2490   -3.9320 H         1 PAL1        0.0000
     68 H76S       -2.7960   10.2640   -2.6820 H         1 PAL1        0.0000
     69 C77        -2.0780   11.3380   -4.4400 C.3       1 PAL1        0.0000
     70 H77R       -2.7060   12.2330   -4.2410 H         1 PAL1        0.0000
     71 H77S       -2.0530   11.1820   -5.5430 H         1 PAL1        0.0000
     72 C78        -0.6440   11.5710   -3.9380 C.3       1 PAL1        0.0000
     73 H78R        0.0740   11.3530   -4.7590 H         1 PAL1        0.0000
     74 H78S       -0.4250   10.8510   -3.1160 H         1 PAL1        0.0000
     75 C79        -0.3940   12.9870   -3.4130 C.3       1 PAL1        0.0000
     76 H79R       -1.0890   13.1800   -2.5640 H         1 PAL1        0.0000
     77 H79S       -0.6340   13.7180   -4.2180 H         1 PAL1        0.0000
     78 C710        1.0490   13.1950   -2.9490 C.3       1 PAL1        0.0000
     79 H710        1.7550   13.0190   -3.7900 H         1 PAL1        0.0000
     80 H710        1.2990   12.4850   -2.1310 H         1 PAL1        0.0000
     81 H710        1.1970   14.2310   -2.5760 H         1 PAL1        0.0000
     82 C51        -1.6340    4.0000   -2.5360 C.2       1 PAL1        0.0000
     83 O51        -1.9670    3.5800   -3.6350 O.2       1 PAL1        0.0000
     84 C52        -0.2580    4.5710   -2.2970 C.3       1 PAL1        0.0000
     85 H52R        0.3720    3.7570   -1.8750 H         1 PAL1        0.0000
     86 H52S       -0.3110    5.3950   -1.5590 H         1 PAL1        0.0000
     87 C53         0.3870    5.0710   -3.5960 C.3       1 PAL1        0.0000
     88 H53R        0.3050    4.2670   -4.3710 H         1 PAL1        0.0000
     89 O53         1.7450    5.3510   -3.2330 O.3       1 PAL1        0.0000
     90 C61         2.6630    4.9340   -4.0980 C.2       1 PAL1        0.0000
     91 O61         2.4400    4.4720   -5.2030 O.2       1 PAL1        0.0000
     92 C62         4.0500    5.3020   -3.5730 C.3       1 PAL1        0.0000
     93 H62R        4.7950    4.8180   -4.2340 H         1 PAL1        0.0000
     94 H62S        4.1420    4.8710   -2.5570 H         1 PAL1        0.0000
     95 C63         4.3000    6.8220   -3.4960 C.3       1 PAL1        0.0000
     96 H63R        5.2340    6.9910   -2.9090 H         1 PAL1        0.0000
     97 H63S        3.4720    7.3270   -2.9500 H         1 PAL1        0.0000
     98 C64         4.5010    7.4580   -4.8730 C.3       1 PAL1        0.0000
     99 H64R        3.6120    7.2730   -5.5160 H         1 PAL1        0.0000
    100 H64S        5.3710    6.9790   -5.3740 H         1 PAL1        0.0000
    101 C65         4.7440    8.9660   -4.7670 C.3       1 PAL1        0.0000
    102 H65R        5.6330    9.1440   -4.1210 H         1 PAL1        0.0000
    103 H65S        3.8690    9.4490   -4.2770 H         1 PAL1        0.0000
    104 C66         4.9830    9.6090   -6.1320 C.3       1 PAL1        0.0000
    105 H66R        4.1230    9.3980   -6.8060 H         1 PAL1        0.0000
    106 H66S        5.8880    9.1430   -6.5850 H         1 PAL1        0.0000
    107 C67         5.1880   11.1250   -6.0410 C.3       1 PAL1        0.0000
    108 H67R        5.7870   11.3680   -5.1340 H         1 PAL1        0.0000
    109 H67S        4.1950   11.6160   -5.9310 H         1 PAL1        0.0000
    110 C68         5.9190   11.6700   -7.2710 C.3       1 PAL1        0.0000
    111 H68R        5.7840   10.9650   -8.1220 H         1 PAL1        0.0000
    112 H68S        7.0050   11.7140   -7.0390 H         1 PAL1        0.0000
    113 C69         5.4410   13.0550   -7.7170 C.3       1 PAL1        0.0000
    114 H69R        5.5120   13.7620   -6.8610 H         1 PAL1        0.0000
    115 H69S        4.3730   12.9950   -8.0270 H         1 PAL1        0.0000
    116 C610        6.2820   13.5910   -8.8820 C.3       1 PAL1        0.0000
    117 H610        6.1260   12.9480   -9.7770 H         1 PAL1        0.0000
    118 H610        7.3590   13.5260   -8.6040 H         1 PAL1        0.0000
    119 C611        5.9490   15.0470   -9.2210 C.3       1 PAL1        0.0000
    120 H611        6.1300   15.6670   -8.3140 H         1 PAL1        0.0000
    121 H611        4.8650   15.1200   -9.4650 H         1 PAL1        0.0000
    122 C612        6.7690   15.6080  -10.3850 C.3       1 PAL1        0.0000
    123 H612        6.5500   15.0480  -11.3190 H         1 PAL1        0.0000
    124 H612        7.8570   15.5240  -10.1720 H         1 PAL1        0.0000
    125 H612        6.5250   16.6790  -10.5510 H         1 PAL1        0.0000
    126 C54        -0.2660    6.3700   -4.1380 C.3       1 PAL1        0.0000
    127 H54R       -0.3320    7.1070   -3.3090 H         1 PAL1        0.0000
    128 H54S       -1.3000    6.1300   -4.4730 H         1 PAL1        0.0000
    129 C55         0.5120    7.0000   -5.3090 C.3       1 PAL1        0.0000
    130 H55R        0.6530    6.2310   -6.1010 H         1 PAL1        0.0000
    131 H55S        1.5190    7.2920   -4.9370 H         1 PAL1        0.0000
    132 C56        -0.1290    8.2480   -5.9300 C.3       1 PAL1        0.0000
    133 H56R       -0.1190    9.0600   -5.1730 H         1 PAL1        0.0000
    134 H56S       -1.1900    8.0450   -6.1940 H         1 PAL1        0.0000
    135 C57         0.6260    8.7060   -7.1890 C.3       1 PAL1        0.0000
    136 H57R        0.1990    8.1760   -8.0690 H         1 PAL1        0.0000
    137 H57S        1.6950    8.4050   -7.1040 H         1 PAL1        0.0000
    138 C58         0.5860   10.2220   -7.4240 C.3       1 PAL1        0.0000
    139 H58R        1.2100   10.7190   -6.6480 H         1 PAL1        0.0000
    140 H58S       -0.4600   10.5850   -7.3120 H         1 PAL1        0.0000
    141 C59         1.1060   10.6130   -8.8130 C.3       1 PAL1        0.0000
    142 H59R        0.4370   10.1670   -9.5820 H         1 PAL1        0.0000
    143 H59S        2.1200   10.1800   -8.9630 H         1 PAL1        0.0000
    144 C510        1.1770   12.1310   -9.0290 C.3       1 PAL1        0.0000
    145 H510        1.9080   12.5710   -8.3140 H         1 PAL1        0.0000
    146 H510        0.1790   12.5750   -8.8130 H         1 PAL1        0.0000
    147 C511        1.5860   12.4940  -10.4620 C.3       1 PAL1        0.0000
    148 H511        0.8970   11.9760  -11.1680 H         1 PAL1        0.0000
    149 H511        2.6110   12.1020  -10.6500 H         1 PAL1        0.0000
    150 C512        1.5520   13.9960  -10.7580 C.3       1 PAL1        0.0000
    151 H512        2.2460   14.5470  -10.0890 H         1 PAL1        0.0000
    152 H512        0.5270   14.3950  -10.6060 H         1 PAL1        0.0000
    153 H512        1.8490   14.1930  -11.8110 H         1 PAL1        0.0000
    154 C11         4.0440    1.6870   -1.1380 C.2       1 PAL1        0.0000
    155 O11         3.8010    2.8600   -1.3050 O.2       1 PAL1        0.0000
    156 C12         5.0270    0.8960   -1.9970 C.3       1 PAL1        0.0000
    157 H12R        4.4050    0.2110   -2.6110 H         1 PAL1        0.0000
    158 H12S        5.6750    0.2690   -1.3550 H         1 PAL1        0.0000
    159 C13         5.8550    1.8000   -2.9390 C.3       1 PAL1        0.0000
    160 H13R        5.2930    2.7350   -3.1670 H         1 PAL1        0.0000
    161 O13         6.1670    1.0350   -4.1190 O.3       1 PAL1        0.0000
    162 C21         5.6470    1.4830   -5.2670 C.2       1 PAL1        0.0000
    163 O21         4.9770    2.4870   -5.3940 O.2       1 PAL1        0.0000
    164 C22         6.0250    0.5130   -6.4470 C.3       1 PAL1        0.0000
    165 H22S        6.3790   -0.4390   -5.9950 H         1 PAL1        0.0000
    166 O22         4.9510    0.1960   -7.3520 O.3       1 PAL1        0.0000
    167 HO22        4.3560    0.9260   -7.5620 H         1 PAL1        0.0000
    168 C23         7.1930    1.1080   -7.2870 C.3       1 PAL1        0.0000
    169 H23R        7.5300    0.3180   -7.9960 H         1 PAL1        0.0000
    170 H23S        8.0490    1.3290   -6.6130 H         1 PAL1        0.0000
    171 C24         6.8710    2.3680   -8.1190 C.3       1 PAL1        0.0000
    172 H24R        6.5820    3.2170   -7.4590 H         1 PAL1        0.0000
    173 H24S        6.0110    2.1520   -8.7910 H         1 PAL1        0.0000
    174 C25         8.0750    2.7810   -8.9820 C.3       1 PAL1        0.0000
    175 H25R        8.4620    1.8730   -9.4970 H         1 PAL1        0.0000
    176 H25S        8.8840    3.1650   -8.3220 H         1 PAL1        0.0000
    177 C26         7.7520    3.8230  -10.0610 C.3       1 PAL1        0.0000
    178 H26R        7.3180    4.7340   -9.5940 H         1 PAL1        0.0000
    179 H26S        6.9860    3.4000  -10.7480 H         1 PAL1        0.0000
    180 C27         8.9920    4.2230  -10.8780 C.3       1 PAL1        0.0000
    181 H27R        9.5860    3.3160  -11.1300 H         1 PAL1        0.0000
    182 H27S        9.6330    4.8750  -10.2430 H         1 PAL1        0.0000
    183 C28         8.6400    4.9570  -12.1820 C.3       1 PAL1        0.0000
    184 H28R        7.6620    5.4720  -12.0580 H         1 PAL1        0.0000
    185 H28S        8.5250    4.2060  -12.9970 H         1 PAL1        0.0000
    186 C29         9.6880    6.0060  -12.5830 C.3       1 PAL1        0.0000
    187 H29R       10.6940    5.5320  -12.6200 H         1 PAL1        0.0000
    188 H29S        9.7190    6.8010  -11.8040 H         1 PAL1        0.0000
    189 C210        9.3900    6.6500  -13.9430 C.3       1 PAL1        0.0000
    190 H210        8.3930    7.1420  -13.9060 H         1 PAL1        0.0000
    191 H210        9.3460    5.8540  -14.7190 H         1 PAL1        0.0000
    192 C211       10.4480    7.6840  -14.3500 C.3       1 PAL1        0.0000
    193 H211       11.4400    7.1770  -14.3890 H         1 PAL1        0.0000
    194 H211       10.5060    8.4680  -13.5620 H         1 PAL1        0.0000
    195 C212       10.1690    8.3470  -15.7010 C.3       1 PAL1        0.0000
    196 H212        9.2090    8.9060  -15.6690 H         1 PAL1        0.0000
    197 H212       10.1020    7.5810  -16.5040 H         1 PAL1        0.0000
    198 H212       10.9810    9.0590  -15.9620 H         1 PAL1        0.0000
    199 C14         7.1900    2.2010   -2.2760 C.3       1 PAL1        0.0000
    200 H14R        7.6560    1.2770   -1.8710 H         1 PAL1        0.0000
    201 H14S        6.9680    2.8680   -1.4140 H         1 PAL1        0.0000
    202 C15         8.2060    2.8810   -3.2120 C.3       1 PAL1        0.0000
    203 H15R        8.5210    2.1670   -4.0060 H         1 PAL1        0.0000
    204 H15S        9.1110    3.1280   -2.6120 H         1 PAL1        0.0000
    205 C16         7.6780    4.1620   -3.8690 C.3       1 PAL1        0.0000
    206 H16R        7.0650    4.7320   -3.1350 H         1 PAL1        0.0000
    207 H16S        7.0140    3.8980   -4.7210 H         1 PAL1        0.0000
    208 C17         8.8080    5.0590   -4.3830 C.3       1 PAL1        0.0000
    209 H17R        9.4970    4.4610   -5.0210 H         1 PAL1        0.0000
    210 H17S        9.3950    5.4410   -3.5180 H         1 PAL1        0.0000
    211 C18         8.2880    6.2440   -5.2020 C.3       1 PAL1        0.0000
    212 H18R        7.5500    6.8130   -4.5930 H         1 PAL1        0.0000
    213 H18S        7.7630    5.8610   -6.1050 H         1 PAL1        0.0000
    214 C19         9.4240    7.1830   -5.6190 C.3       1 PAL1        0.0000
    215 H19R       10.1530    6.6190   -6.2410 H         1 PAL1        0.0000
    216 H19S        9.9570    7.5260   -4.7040 H         1 PAL1        0.0000
    217 C110        8.9390    8.4110   -6.3980 C.3       1 PAL1        0.0000
    218 H110        8.2120    8.9730   -5.7710 H         1 PAL1        0.0000
    219 H110        8.4030    8.0740   -7.3130 H         1 PAL1        0.0000
    220 C111       10.1010    9.3320   -6.7920 C.3       1 PAL1        0.0000
    221 H111       10.8010    8.7590   -7.4410 H         1 PAL1        0.0000
    222 H111       10.6570    9.6180   -5.8700 H         1 PAL1        0.0000
    223 C112        9.6670   10.6040   -7.5190 C.3       1 PAL1        0.0000
    224 H112        9.0980   11.2590   -6.8250 H         1 PAL1        0.0000
    225 H112        9.0230   10.3570   -8.3900 H         1 PAL1        0.0000
    226 H112       10.5500   11.1710   -7.8820 H         1 PAL1        0.0000
@<TRIPOS>BOND
     1  197  195 1 
     2  198  195 1 
     3  195  196 1 
     4  195  192 1 
     5  191  189 1 
     6  193  192 1 
     7  192  189 1 
     8  192  194 1 
     9  189  190 1 
    10  189  186 1 
    11  185  183 1 
    12  187  186 1 
    13  186  183 1 
    14  186  188 1 
    15  183  184 1 
    16  183  180 1 
    17  153  150 1 
    18  123  122 1 
    19  148  147 1 
    20  181  180 1 
    21  180  182 1 
    22  180  177 1 
    23  150  152 1 
    24  150  147 1 
    25  150  151 1 
    26  179  177 1 
    27  149  147 1 
    28  125  122 1 
    29  147  144 1 
    30  122  124 1 
    31  122  119 1 
    32  177  178 1 
    33  177  174 1 
    34  117  116 1 
    35  142  141 1 
    36  175  174 1 
    37  121  119 1 
    38  119  116 1 
    39  119  120 1 
    40  144  146 1 
    41  144  141 1 
    42  144  145 1 
    43  174  176 1 
    44  174  171 1 
    45  143  141 1 
    46  116  118 1 
    47  116  113 1 
    48  141  138 1 
    49  173  171 1 
    50  225  223 1 
    51  111  110 1 
    52  171  172 1 
    53  171  168 1 
    54  136  135 1 
    55  115  113 1 
    56  169  168 1 
    57  226  223 1 
    58  113  110 1 
    59  113  114 1 
    60  167  166 1 
    61  223  224 1 
    62  223  220 1 
    63  221  220 1 
    64  138  140 1 
    65  138  135 1 
    66  138  139 1 
    67  166  164 1 
    68  219  217 1 
    69  168  170 1 
    70  168  164 1 
    71  110  112 1 
    72  110  107 1 
    73  135  137 1 
    74  135  132 1 
    75  105  104 1 
    76  220  217 1 
    77  220  222 1 
    78  106  104 1 
    79  164  165 1 
    80  164  162 1 
    81  217  218 1 
    82  217  214 1 
    83  215  214 1 
    84  134  132 1 
    85  104  107 1 
    86  104  101 1 
    87  213  211 1 
    88  130  129 1 
    89  107  109 1 
    90  107  108 1 
    91  132  129 1 
    92  132  133 1 
    93   59   58 1 
    94   58   56 1 
    95  214  211 1 
    96  214  216 1 
    97   71   69 1 
    98   99   98 1 
    99   65   63 1 
   100  163  162 2 
   101  100   98 1 
   102  129  131 1 
   103  129  126 1 
   104  162  161 1 
   105   91   90 2 
   106  211  212 1 
   107  211  208 1 
   108   61   60 1 
   109  209  208 1 
   110   98  101 1 
   111   98   95 1 
   112  101  103 1 
   113  101  102 1 
   114   73   72 1 
   115   29   27 1 
   116  207  205 1 
   117  128  126 1 
   118   69   70 1 
   119   69   72 1 
   120   69   66 1 
   121  208  205 1 
   122  208  210 1 
   123   88   87 1 
   124   63   60 1 
   125   63   66 1 
   126   63   64 1 
   127   56   60 1 
   128   56   27 1 
   129   56   57 1 
   130   28   27 1 
   131   60   62 1 
   132   93   92 1 
   133   77   75 1 
   134  126   87 1 
   135  126  127 1 
   136  161  159 1 
   137   27   25 1 
   138   90   92 1 
   139   90   89 1 
   140  203  202 1 
   141   72   75 1 
   142   72   74 1 
   143   67   66 1 
   144  205  202 1 
   145  205  206 1 
   146   79   78 1 
   147   66   68 1 
   148   83   82 2 
   149   87   89 1 
   150   87   84 1 
   151   92   95 1 
   152   92   94 1 
   153   95   97 1 
   154   95   96 1 
   155   75   78 1 
   156   75   76 1 
   157  202  204 1 
   158  202  199 1 
   159  160  159 1 
   160   21   18 2 
   161   78   81 1 
   162   78   80 1 
   163  159  199 1 
   164  159  156 1 
   165   25   23 1 
   166   25   26 2 
   167   23   22 1 
   168  157  156 1 
   169   82   84 1 
   170   82   32 am
   171   19   18 1 
   172   84   85 1 
   173   84   86 1 
   174  199  200 1 
   175  199  201 1 
   176   31   30 1 
   177  156  158 1 
   178  156  154 1 
   179   18   20 1 
   180   18   17 1 
   181   16   15 1 
   182   32   30 1 
   183   32   33 1 
   184   22   30 1 
   185   22   15 1 
   186   22   24 1 
   187  155  154 2 
   188   30    9 1 
   189  154   54 am
   190   15   17 1 
   191   15    6 1 
   192   42   41 1 
   193   53   52 1 
   194   45   47 2 
   195   54   52 1 
   196   54   55 1 
   197    5    4 1 
   198   11    9 1 
   199   11   12 1 
   200   40   41 1 
   201   40   38 1 
   202   52   41 1 
   203   52   48 1 
   204   41   43 1 
   205    9    7 1 
   206    9   10 1 
   207    7    6 1 
   208   35   34 1 
   209    6    4 1 
   210    6    8 1 
   211   51   50 1 
   212    4    1 1 
   213    4    2 1 
   214   46   47 1 
   215   13   12 1 
   216   47   43 1 
   217   47   44 1 
   218   12   38 1 
   219   12   14 1 
   220   38   34 1 
   221   38   39 1 
   222   50   48 1 
   223   48   34 1 
   224   48   49 1 
   225   34   36 1 
   226    3    2 1 
   227   36   37 1 
