@<TRIPOS>MOLECULE
C:\Users\Praveer\PycharmProjects\pdb_to_mol2_converter\data\pdb\palo.pdb
   47    46     0     0     0
SMALL
GASTEIGER

@<TRIPOS>ATOM
      1 O1          0.0220   -0.1070    0.0830 O.co2     1 PAL1        0.0000
      2 O2          2.0930   -0.9170    0.0360 O.co2     1 PAL1        0.0000
      3 C1          1.2720    0.0350    0.0380 C.2       1 PAL1        0.0000
      4 C2          1.7970    1.4710   -0.0160 C.3       1 PAL1        0.0000
      5 H2R         1.4140    1.9960    0.8820 H         1 PAL1        0.0000
      6 H2S         1.3600    1.9430   -0.9190 H         1 PAL1        0.0000
      7 C3          3.3390    1.5570   -0.0670 C.3       1 PAL1        0.0000
      8 H3R         3.7020    0.9750   -0.9450 H         1 PAL1        0.0000
      9 H3S         3.7580    1.0750    0.8450 H         1 PAL1        0.0000
     10 C4          3.8440    3.0010   -0.1700 C.3       1 PAL1        0.0000
     11 H4R         3.4790    3.5760    0.7100 H         1 PAL1        0.0000
     12 H4S         3.4070    3.4640   -1.0830 H         1 PAL1        0.0000
     13 C5          5.3740    3.0890   -0.2400 C.3       1 PAL1        0.0000
     14 H5R         5.7280    2.4620   -1.0890 H         1 PAL1        0.0000
     15 H5S         5.8050    2.6650    0.6950 H         1 PAL1        0.0000
     16 C6          5.8790    4.5260   -0.4330 C.3       1 PAL1        0.0000
     17 H6R         5.5290    5.1540    0.4170 H         1 PAL1        0.0000
     18 H6S         5.4320    4.9390   -1.3650 H         1 PAL1        0.0000
     19 C7          7.4090    4.6070   -0.5300 C.3       1 PAL1        0.0000
     20 H7R         7.7460    3.9280   -1.3460 H         1 PAL1        0.0000
     21 H7S         7.8460    4.2360    0.4250 H         1 PAL1        0.0000
     22 C8          7.9040    6.0380   -0.8090 C.3       1 PAL1        0.0000
     23 H8R         7.5120    6.6940    0.0010 H         1 PAL1        0.0000
     24 H8S         7.4460    6.3890   -1.7600 H         1 PAL1        0.0000
     25 C9          9.4100    6.0990   -0.9110 C.2       1 PAL1        0.0000
     26 H9R         9.8510    5.3760   -1.6150 H         1 PAL1        0.0000
     27 C10        10.2300    6.9090   -0.2160 C.2       1 PAL1        0.0000
     28 H10R       11.3160    6.8330   -0.3810 H         1 PAL1        0.0000
     29 C11         9.8130    7.9560    0.7870 C.3       1 PAL1        0.0000
     30 H11R        8.7940    8.3470    0.5670 H         1 PAL1        0.0000
     31 H11S       10.5010    8.8290    0.7330 H         1 PAL1        0.0000
     32 C12         9.8180    7.4120    2.2270 C.3       1 PAL1        0.0000
     33 H12R       10.8370    7.0480    2.4900 H         1 PAL1        0.0000
     34 H12S        9.1200    6.5470    2.2990 H         1 PAL1        0.0000
     35 C13         9.3920    8.4730    3.2520 C.3       1 PAL1        0.0000
     36 H13R        8.3730    8.8390    2.9940 H         1 PAL1        0.0000
     37 H13S       10.0880    9.3390    3.1910 H         1 PAL1        0.0000
     38 C14         9.3820    7.9370    4.6900 C.3       1 PAL1        0.0000
     39 H14R       10.4020    7.5750    4.9520 H         1 PAL1        0.0000
     40 H14S        8.6900    7.0670    4.7500 H         1 PAL1        0.0000
     41 C15         8.9470    8.9940    5.7130 C.3       1 PAL1        0.0000
     42 H15R        7.9280    9.3540    5.4430 H         1 PAL1        0.0000
     43 H15S        9.6380    9.8650    5.6440 H         1 PAL1        0.0000
     44 C16         8.9320    8.4750    7.1530 C.3       1 PAL1        0.0000
     45 H16R        9.9460    8.1320    7.4530 H         1 PAL1        0.0000
     46 H16S        8.2300    7.6190    7.2510 H         1 PAL1        0.0000
     47 H16T        8.6110    9.2750    7.8540 H         1 PAL1        0.0000
@<TRIPOS>BOND
     1   24   22 1 
     2   26   25 1 
     3   18   16 1 
     4   20   19 1 
     5   14   13 1 
     6   12   10 1 
     7    8    7 1 
     8    6    4 1 
     9   25   22 1 
    10   25   27 2 
    11   22   19 1 
    12   22   23 1 
    13   19   16 1 
    14   19   21 1 
    15   16   13 1 
    16   16   17 1 
    17   28   27 1 
    18   13   10 1 
    19   13   15 1 
    20   27   29 1 
    21   10    7 1 
    22   10   11 1 
    23    7    4 1 
    24    7    9 1 
    25    4    3 1 
    26    4    5 1 
    27    2    3 ar
    28    3    1 ar
    29   30   29 1 
    30   31   29 1 
    31   29   32 1 
    32   32   34 1 
    33   32   33 1 
    34   32   35 1 
    35   36   35 1 
    36   37   35 1 
    37   35   38 1 
    38   38   40 1 
    39   38   39 1 
    40   38   41 1 
    41   42   41 1 
    42   43   41 1 
    43   41   44 1 
    44   44   46 1 
    45   44   45 1 
    46   44   47 1 
