@<TRIPOS>MOLECULE
C:\Users\Praveer\PycharmProjects\pdb_to_mol2_converter\data\pdb\palop.pdb
   48    47     0     0     0
SMALL
GASTEIGER

@<TRIPOS>ATOM
      1 H1          0.0120   -0.0590   -0.1720 H         1 PAL1        0.0000
      2 O1          0.9610   -0.0570   -0.0560 O.3       1 PAL1        0.0000
      3 O2          0.5580    2.1520   -0.1510 O.2       1 PAL1        0.0000
      4 C1          1.3700    1.2550   -0.0330 C.2       1 PAL1        0.0000
      5 C2          2.8770    1.3940    0.1520 C.3       1 PAL1        0.0000
      6 H2R         3.3820    0.8700   -0.6860 H         1 PAL1        0.0000
      7 H2S         3.1580    0.8950    1.1030 H         1 PAL1        0.0000
      8 C3          3.3150    2.8730    0.1880 C.3       1 PAL1        0.0000
      9 H3R         2.7790    3.4020    1.0100 H         1 PAL1        0.0000
     10 H3S         3.0400    3.3720   -0.7690 H         1 PAL1        0.0000
     11 C4          4.8250    3.0260    0.4140 C.3       1 PAL1        0.0000
     12 H4R         5.3760    2.5170   -0.4090 H         1 PAL1        0.0000
     13 H4S         5.1010    2.5240    1.3680 H         1 PAL1        0.0000
     14 C5          5.2650    4.4950    0.4810 C.3       1 PAL1        0.0000
     15 H5R         4.6780    5.0120    1.2730 H         1 PAL1        0.0000
     16 H5S         5.0360    4.9920   -0.4880 H         1 PAL1        0.0000
     17 C6          6.7600    4.6500    0.7910 C.3       1 PAL1        0.0000
     18 H6R         7.3560    4.1440   -0.0020 H         1 PAL1        0.0000
     19 H6S         6.9820    4.1440    1.7570 H         1 PAL1        0.0000
     20 C7          7.1930    6.1200    0.8870 C.3       1 PAL1        0.0000
     21 H7R         6.5500    6.6300    1.6400 H         1 PAL1        0.0000
     22 H7S         7.0180    6.6090   -0.0980 H         1 PAL1        0.0000
     23 C8          8.6730    6.2700    1.2850 C.3       1 PAL1        0.0000
     24 H8R         9.2820    5.7100    0.5410 H         1 PAL1        0.0000
     25 H8S         8.8250    5.7730    2.2680 H         1 PAL1        0.0000
     26 C9          9.0780    7.7220    1.3740 C.2       1 PAL1        0.0000
     27 H9R         8.4300    8.3400    2.0160 H         1 PAL1        0.0000
     28 C10        10.1070    8.3110    0.7360 C.2       1 PAL1        0.0000
     29 H10R       10.2740    9.3900    0.8810 H         1 PAL1        0.0000
     30 C11        11.1000    7.6340   -0.1770 C.3       1 PAL1        0.0000
     31 H11R       11.2170    6.5560    0.0760 H         1 PAL1        0.0000
     32 H11S       12.1050    8.0940   -0.0510 H         1 PAL1        0.0000
     33 C12        10.6920    7.7380   -1.6570 C.3       1 PAL1        0.0000
     34 H12R       10.6000    8.8090   -1.9490 H         1 PAL1        0.0000
     35 H12S        9.6970    7.2590   -1.8010 H         1 PAL1        0.0000
     36 C13        11.7050    7.0570   -2.5900 C.3       1 PAL1        0.0000
     37 H13R       11.8020    5.9870   -2.2990 H         1 PAL1        0.0000
     38 H13S       12.7010    7.5350   -2.4590 H         1 PAL1        0.0000
     39 C14        11.2970    7.1390   -4.0670 C.3       1 PAL1        0.0000
     40 H14R       11.2070    8.2080   -4.3620 H         1 PAL1        0.0000
     41 H14S       10.2970    6.6670   -4.1950 H         1 PAL1        0.0000
     42 C15        12.3000    6.4440   -4.9970 C.3       1 PAL1        0.0000
     43 H15R       12.3920    5.3770   -4.6910 H         1 PAL1        0.0000
     44 H15S       13.3000    6.9170   -4.8630 H         1 PAL1        0.0000
     45 C16        11.9040    6.5110   -6.4750 C.3       1 PAL1        0.0000
     46 H16R       11.8320    7.5680   -6.8100 H         1 PAL1        0.0000
     47 H16S       10.9180    6.0240   -6.6350 H         1 PAL1        0.0000
     48 H16T       12.6580    5.9930   -7.1050 H         1 PAL1        0.0000
@<TRIPOS>BOND
     1   48   45 1 
     2   46   45 1 
     3   47   45 1 
     4   45   42 1 
     5   42   44 1 
     6   42   43 1 
     7   42   39 1 
     8   40   39 1 
     9   41   39 1 
    10   39   36 1 
    11   36   38 1 
    12   36   37 1 
    13   36   33 1 
    14   34   33 1 
    15   35   33 1 
    16   33   30 1 
    17   10    8 1 
    18    6    5 1 
    19   16   14 1 
    20   12   11 1 
    21   30   32 1 
    22   30   31 1 
    23   30   28 1 
    24    1    2 1 
    25    3    4 2 
    26   22   20 1 
    27    2    4 1 
    28    4    5 1 
    29   18   17 1 
    30    5    8 1 
    31    5    7 1 
    32    8   11 1 
    33    8    9 1 
    34   11   14 1 
    35   11   13 1 
    36   14   17 1 
    37   14   15 1 
    38   24   23 1 
    39   28   29 1 
    40   28   26 2 
    41   17   20 1 
    42   17   19 1 
    43   20   23 1 
    44   20   21 1 
    45   23   26 1 
    46   23   25 1 
    47   26   27 1 
