@<TRIPOS>MOLECULE
C:\Users\Praveer\PycharmProjects\pdb_to_mol2_converter\data\pdb\palp.pdb
   50    49     0     0     0
SMALL
GASTEIGER

@<TRIPOS>ATOM
      1 H1          0.0500   -0.1300   -0.1950 H         1 PAL1        0.0000
      2 O1          0.9980   -0.1090   -0.0730 O.3       1 PAL1        0.0000
      3 O2          0.5460    2.0920   -0.1470 O.2       1 PAL1        0.0000
      4 C1          1.3780    1.2120   -0.0340 C.2       1 PAL1        0.0000
      5 C2          2.8810    1.3840    0.1580 C.3       1 PAL1        0.0000
      6 H2R         3.4010    0.8720   -0.6790 H         1 PAL1        0.0000
      7 H2S         3.1680    0.8900    1.1100 H         1 PAL1        0.0000
      8 C3          3.2910    2.8720    0.1970 C.3       1 PAL1        0.0000
      9 H3R         2.7510    3.3860    1.0250 H         1 PAL1        0.0000
     10 H3S         2.9960    3.3690   -0.7550 H         1 PAL1        0.0000
     11 C4          4.8000    3.0570    0.4060 C.3       1 PAL1        0.0000
     12 H4R         5.3510    2.5620   -0.4240 H         1 PAL1        0.0000
     13 H4S         5.0990    2.5590    1.3560 H         1 PAL1        0.0000
     14 C5          5.2080    4.5360    0.4700 C.3       1 PAL1        0.0000
     15 H5R         4.6340    5.0340    1.2830 H         1 PAL1        0.0000
     16 H5S         4.9370    5.0330   -0.4880 H         1 PAL1        0.0000
     17 C6          6.7090    4.7290    0.7330 C.3       1 PAL1        0.0000
     18 H6R         7.2920    4.2480   -0.0840 H         1 PAL1        0.0000
     19 H6S         6.9770    4.2200    1.6860 H         1 PAL1        0.0000
     20 C7          7.1020    6.2090    0.8310 C.3       1 PAL1        0.0000
     21 H7R         6.4870    6.6940    1.6230 H         1 PAL1        0.0000
     22 H7S         6.8690    6.7150   -0.1330 H         1 PAL1        0.0000
     23 C8          8.5860    6.4120    1.1630 C.3       1 PAL1        0.0000
     24 H8R         9.2100    5.9430    0.3700 H         1 PAL1        0.0000
     25 H8S         8.8160    5.8970    2.1230 H         1 PAL1        0.0000
     26 C9          8.9600    7.8950    1.2900 C.3       1 PAL1        0.0000
     27 H9R         8.3110    8.3660    2.0630 H         1 PAL1        0.0000
     28 H9S         8.7570    8.4070    0.3230 H         1 PAL1        0.0000
     29 C10        10.4290    8.1110    1.6780 C.3       1 PAL1        0.0000
     30 H10R       11.0850    7.6550    0.9040 H         1 PAL1        0.0000
     31 H10S       10.6300    7.5920    2.6420 H         1 PAL1        0.0000
     32 C11        10.7790    9.5980    1.8270 C.3       1 PAL1        0.0000
     33 H11R       10.1040   10.0540    2.5860 H         1 PAL1        0.0000
     34 H11S       10.5950   10.1150    0.8580 H         1 PAL1        0.0000
     35 C12        12.2340    9.8280    2.2530 C.3       1 PAL1        0.0000
     36 H12R       12.9140    9.3820    1.4940 H         1 PAL1        0.0000
     37 H12S       12.4170    9.3060    3.2190 H         1 PAL1        0.0000
     38 C13        12.5670   11.3170    2.4180 C.3       1 PAL1        0.0000
     39 H13R       11.8750   11.7630    3.1680 H         1 PAL1        0.0000
     40 H13S       12.3950   11.8380    1.4490 H         1 PAL1        0.0000
     41 C14        14.0140   11.5560    2.8690 C.3       1 PAL1        0.0000
     42 H14R       14.7080   11.1150    2.1190 H         1 PAL1        0.0000
     43 H14S       14.1850   11.0330    3.8370 H         1 PAL1        0.0000
     44 C15        14.3390   13.0450    3.0400 C.3       1 PAL1        0.0000
     45 H15R       13.6330   13.4830    3.7820 H         1 PAL1        0.0000
     46 H15S       14.1650   13.5640    2.0690 H         1 PAL1        0.0000
     47 C16        15.7760   13.3040    3.4990 C.3       1 PAL1        0.0000
     48 H16R       16.5000   12.8960    2.7600 H         1 PAL1        0.0000
     49 H16S       15.9650   12.8170    4.4790 H         1 PAL1        0.0000
     50 H16T       15.9600   14.3950    3.6060 H         1 PAL1        0.0000
@<TRIPOS>BOND
     1   10    8 1 
     2    6    5 1 
     3   16   14 1 
     4   12   11 1 
     5    1    2 1 
     6    3    4 2 
     7   22   20 1 
     8   18   17 1 
     9    2    4 1 
    10    4    5 1 
    11    5    8 1 
    12    5    7 1 
    13    8   11 1 
    14    8    9 1 
    15   28   26 1 
    16   24   23 1 
    17   11   14 1 
    18   11   13 1 
    19   14   17 1 
    20   14   15 1 
    21   17   20 1 
    22   17   19 1 
    23   20   23 1 
    24   20   21 1 
    25   34   32 1 
    26   30   29 1 
    27   23   26 1 
    28   23   25 1 
    29   26   29 1 
    30   26   27 1 
    31   40   38 1 
    32   36   35 1 
    33   29   32 1 
    34   29   31 1 
    35   32   35 1 
    36   32   33 1 
    37   46   44 1 
    38   42   41 1 
    39   35   38 1 
    40   35   37 1 
    41   38   41 1 
    42   38   39 1 
    43   48   47 1 
    44   41   44 1 
    45   41   43 1 
    46   44   47 1 
    47   44   45 1 
    48   47   50 1 
    49   47   49 1 
