@<TRIPOS>MOLECULE
C:\Users\Praveer\PycharmProjects\pdb_to_mol2_converter\data\pdb\pbsm.pdb
   27    28     0     0     0
SMALL
GASTEIGER

@<TRIPOS>ATOM
      1 CG         -0.1190   -0.0010   -0.1350 C.ar      1 PBS1        0.0000
      2 HG         -0.6780   -0.9260   -0.1320 H         1 PBS1        0.0000
      3 CD1         1.2790   -0.0330   -0.2030 C.ar      1 PBS1        0.0000
      4 HD1         1.7990   -0.9800   -0.2450 H         1 PBS1        0.0000
      5 CE1         2.0040    1.1630   -0.2060 C.ar      1 PBS1        0.0000
      6 HE1         3.0840    1.1290   -0.2450 H         1 PBS1        0.0000
      7 CD2        -0.7920    1.2250   -0.0730 C.ar      1 PBS1        0.0000
      8 HD2        -1.8720    1.2460   -0.0210 H         1 PBS1        0.0000
      9 CE2        -0.0660    2.4230   -0.0720 C.ar      1 PBS1        0.0000
     10 HE2        -0.5920    3.3660   -0.0200 H         1 PBS1        0.0000
     11 CZ          1.3430    2.4090   -0.1390 C.ar      1 PBS1        0.0000
     12 S1          2.2840    3.9160    0.0100 S.O2      1 PBS1        0.0000
     13 O11         1.4160    4.9520   -0.4810 O.2       1 PBS1        0.0000
     14 O12         3.5610    3.6420   -0.5940 O.2       1 PBS1        0.0000
     15 N2          2.4030    4.0840    1.6480 N.pl3     1 PBS1        0.0000
     16 H21         1.5120    4.4260    1.9960 H         1 PBS1        0.0000
     17 C3          2.9360    3.0330    2.4120 C.ar      1 PBS1        0.0000
     18 C41         2.0710    2.3060    3.2430 C.ar      1 PBS1        0.0000
     19 H41         1.0310    2.5850    3.3220 H         1 PBS1        0.0000
     20 C42         4.2850    2.6540    2.3150 C.ar      1 PBS1        0.0000
     21 H42         4.9520    3.2100    1.6720 H         1 PBS1        0.0000
     22 C51         2.5420    1.1940    3.9540 C.ar      1 PBS1        0.0000
     23 H51         1.8700    0.6270    4.5820 H         1 PBS1        0.0000
     24 C52         4.7590    1.5420    3.0240 C.ar      1 PBS1        0.0000
     25 H52         5.7940    1.2440    2.9350 H         1 PBS1        0.0000
     26 C6          3.8850    0.8110    3.8400 C.ar      1 PBS1        0.0000
     27 H6          4.2470   -0.0520    4.3800 H         1 PBS1        0.0000
@<TRIPOS>BOND
     1   14   12 2 
     2   13   12 2 
     3    4    3 1 
     4    6    5 1 
     5    5    3 ar
     6    5   11 ar
     7    3    1 ar
     8   11    9 ar
     9   11   12 1 
    10    1    2 1 
    11    1    7 ar
    12    7    9 ar
    13    7    8 1 
    14    9   10 1 
    15   12   15 1 
    16   15   16 1 
    17   15   17 1 
    18   21   20 1 
    19   20   17 ar
    20   20   24 ar
    21   17   18 ar
    22   25   24 1 
    23   24   26 ar
    24   18   19 1 
    25   18   22 ar
    26   26   22 ar
    27   26   27 1 
    28   22   23 1 
