@<TRIPOS>MOLECULE
C:\Users\Praveer\PycharmProjects\pdb_to_mol2_converter\data\pdb\pc.pdb
   28    27     0     0     0
SMALL
GASTEIGER

@<TRIPOS>ATOM
      1 N           1.3740   -0.0690    0.0620 N.4       1 PC1         0.0000
      2 C1          1.6970    1.3810    0.4300 C.3       1 PC1         0.0000
      3 C2          2.2340   -0.5370   -1.0790 C.3       1 PC1         0.0000
      4 C3          1.6480   -0.9780    1.2240 C.3       1 PC1         0.0000
      5 C4         -0.0760   -0.1830   -0.3080 C.3       1 PC1         0.0000
      6 H11         0.9260    1.7510    1.1060 H         1 PC1         0.0000
      7 H12         1.6590    1.9990   -0.4600 H         1 PC1         0.0000
      8 H21         3.2850   -0.4600   -0.8100 H         1 PC1         0.0000
      9 H22         2.0650    0.0350   -1.9800 H         1 PC1         0.0000
     10 H23         2.0440   -1.5830   -1.2830 H         1 PC1         0.0000
     11 H31         1.1330   -0.6540    2.1270 H         1 PC1         0.0000
     12 H32         2.7080   -0.9110    1.5100 H         1 PC1         0.0000
     13 H33         1.4320   -2.0160    1.0360 H         1 PC1         0.0000
     14 H41        -0.3160    0.4440   -1.1560 H         1 PC1         0.0000
     15 H42        -0.7050    0.1100    0.5290 H         1 PC1         0.0000
     16 H43        -0.3260   -1.2070   -0.5580 H         1 PC1         0.0000
     17 C5          3.0160    1.6740    1.1870 C.3       1 PC1         0.0000
     18 H51         3.3310    2.7190    0.9600 H         1 PC1         0.0000
     19 H52         3.8400    1.0120    0.8370 H         1 PC1         0.0000
     20 P1          3.5380    0.5980    3.6100 P.3       1 PC1         0.0000
     21 O3          4.1130    1.3980    4.7510 O.3       1 PC1         0.0000
     22 O4          4.3810   -0.3430    2.7750 O.2       1 PC1         0.0000
     23 O1          2.7620    1.6040    2.5920 O.3       1 PC1         0.0000
     24 O2          2.3090   -0.3190    4.1830 O.3       1 PC1         0.0000
     25 C6          2.6550   -1.2750    5.1860 C.3       1 PC1         0.0000
     26 H61         3.0530   -0.7710    6.1000 H         1 PC1         0.0000
     27 H62         3.4180   -2.0000    4.8140 H         1 PC1         0.0000
     28 H63         1.7530   -1.8550    5.4760 H         1 PC1         0.0000
@<TRIPOS>BOND
     1    9    3 1 
     2   10    3 1 
     3   14    5 1 
     4    3    8 1 
     5    3    1 1 
     6   16    5 1 
     7    7    2 1 
     8    5    1 1 
     9    5   15 1 
    10    1    2 1 
    11    1    4 1 
    12    2    6 1 
    13    2   17 1 
    14   19   17 1 
    15   18   17 1 
    16   13    4 1 
    17   17   23 1 
    18    4   12 1 
    19    4   11 1 
    20   23   20 1 
    21   22   20 2 
    22   20   24 1 
    23   20   21 1 
    24   24   25 1 
    25   27   25 1 
    26   25   28 1 
    27   25   26 1 
