@<TRIPOS>MOLECULE
C:\Users\Praveer\PycharmProjects\pdb_to_mol2_converter\data\pdb\pclt.pdb
   15    15     0     0     0
SMALL
GASTEIGER

@<TRIPOS>ATOM
      1 CG         -0.0020   -0.0030    0.0010 C.ar      1 PCL1        0.0000
      2 CL         -0.8710   -1.5090    0.0000 Cl        1 PCL1        0.0000
      3 CD1         1.3980   -0.0040    0.0000 C.ar      1 PCL1        0.0000
      4 HD1         1.9310   -0.9430   -0.0010 H         1 PCL1        0.0000
      5 CD2        -0.7020    1.2090    0.0000 C.ar      1 PCL1        0.0000
      6 HD2        -1.7820    1.2010   -0.0010 H         1 PCL1        0.0000
      7 CE1         2.1000    1.2100    0.0010 C.ar      1 PCL1        0.0000
      8 HE1         3.1790    1.2110   -0.0020 H         1 PCL1        0.0000
      9 CE2        -0.0020    2.4240    0.0010 C.ar      1 PCL1        0.0000
     10 HE2        -0.5410    3.3590   -0.0020 H         1 PCL1        0.0000
     11 CZ          1.4020    2.4280    0.0050 C.ar      1 PCL1        0.0000
     12 CT          2.1500    3.7250   -0.0070 C.3       1 PCL1        0.0000
     13 H11         2.3240    4.0250   -1.0620 H         1 PCL1        0.0000
     14 H12         3.1240    3.5990    0.5150 H         1 PCL1        0.0000
     15 H13         1.5550    4.5050    0.5150 H         1 PCL1        0.0000
@<TRIPOS>BOND
     1   13   12 1 
     2   12   11 1 
     3   12   14 1 
     4   12   15 1 
     5    8    7 1 
     6   10    9 1 
     7    4    3 1 
     8    6    5 1 
     9    2    1 1 
    10    3    1 ar
    11    3    7 ar
    12    5    1 ar
    13    5    9 ar
    14    7   11 ar
    15    9   11 ar
