@<TRIPOS>MOLECULE
C:\Users\Praveer\PycharmProjects\pdb_to_mol2_converter\data\pdb\pcro.pdb
   16    16     0     0     0
SMALL
GASTEIGER

@<TRIPOS>ATOM
      1 CG          0.0120    0.0350    0.0010 C.ar      1 PCR1        0.0000
      2 CD1         1.4110    0.0300    0.0010 C.ar      1 PCR1        0.0000
      3 HD1         1.9430   -0.9100   -0.0010 H         1 PCR1        0.0000
      4 CD2        -0.6860    1.2490    0.0000 C.ar      1 PCR1        0.0000
      5 HD2        -1.7650    1.2610   -0.0010 H         1 PCR1        0.0000
      6 CE1         2.1180    1.2420    0.0010 C.ar      1 PCR1        0.0000
      7 HE1         3.1970    1.2380   -0.0020 H         1 PCR1        0.0000
      8 CE2         0.0210    2.4620    0.0010 C.ar      1 PCR1        0.0000
      9 HE2        -0.5140    3.4000   -0.0020 H         1 PCR1        0.0000
     10 CZ          1.4240    2.4620    0.0050 C.ar      1 PCR1        0.0000
     11 C1          2.1770    3.7560   -0.0070 C.3       1 PCR1        0.0000
     12 H11         2.3510    4.0560   -1.0620 H         1 PCR1        0.0000
     13 H12         3.1500    3.6270    0.5140 H         1 PCR1        0.0000
     14 H13         1.5850    4.5380    0.5160 H         1 PCR1        0.0000
     15 O2         -0.6870   -1.1880    0.0000 O.3       1 PCR1        0.0000
     16 H2         -1.6240   -0.9860    0.0000 H         1 PCR1        0.0000
@<TRIPOS>BOND
     1   12   11 1 
     2   11   10 1 
     3   11   13 1 
     4   11   14 1 
     5    7    6 1 
     6    9    8 1 
     7    3    2 1 
     8    5    4 1 
     9    4    1 ar
    10    4    8 ar
    11   15   16 1 
    12   15    1 1 
    13    1    2 ar
    14    2    6 ar
    15    6   10 ar
    16    8   10 ar
