@<TRIPOS>MOLECULE
C:\Users\Praveer\PycharmProjects\pdb_to_mol2_converter\data\pdb\pdip.pdb
   26    26     0     0     0
SMALL
GASTEIGER

@<TRIPOS>ATOM
      1 N           2.1370    1.1670    0.0280 N.am      1 PDI1        0.0000
      2 CA          3.5850    1.2870    0.1340 C.3       1 PDI1        0.0000
      3 CB          3.8490    2.7550   -0.2540 C.3       1 PDI1        0.0000
      4 CG          2.5760    3.4980    0.1810 C.3       1 PDI1        0.0000
      5 CD          1.4650    2.4690   -0.0380 C.3       1 PDI1        0.0000
      6 CY          1.4880   -0.0310    0.0260 C.2       1 PDI1        0.0000
      7 OY          2.0720   -1.1100    0.0250 O.2       1 PDI1        0.0000
      8 C           4.0770    0.9610    1.5490 C.2       1 PDI1        0.0000
      9 HA          4.0900    0.6570   -0.6130 H         1 PDI1        0.0000
     10 HB1         3.9640    2.8310   -1.3480 H         1 PDI1        0.0000
     11 HB2         4.7630    3.1770    0.1850 H         1 PDI1        0.0000
     12 HG1         2.4130    4.4390   -0.3600 H         1 PDI1        0.0000
     13 HG2         2.6420    3.7530    1.2520 H         1 PDI1        0.0000
     14 HD1         0.6720    2.5590    0.7220 H         1 PDI1        0.0000
     15 HD2         1.0060    2.5800   -1.0340 H         1 PDI1        0.0000
     16 CAY         0.0010   -0.0150   -0.0010 C.3       1 PDI1        0.0000
     17 HY1        -0.3660    0.5180   -0.9030 H         1 PDI1        0.0000
     18 HY2        -0.3950    0.4760    0.9130 H         1 PDI1        0.0000
     19 HY3        -0.3740   -1.0610   -0.0300 H         1 PDI1        0.0000
     20 O           3.7400    1.6790    2.4860 O.2       1 PDI1        0.0000
     21 NT          4.8860   -0.0890    1.7920 N.am      1 PDI1        0.0000
     22 HT1         5.1230   -0.2180    2.7500 H         1 PDI1        0.0000
     23 CR          5.3760   -1.0600    0.8390 C.3       1 PDI1        0.0000
     24 HR1         5.9960   -0.5700    0.0550 H         1 PDI1        0.0000
     25 HR2         4.5310   -1.5930    0.3470 H         1 PDI1        0.0000
     26 HR3         6.0050   -1.8200    1.3540 H         1 PDI1        0.0000
@<TRIPOS>BOND
     1   10    3 1 
     2   15    5 1 
     3   17   16 1 
     4    9    2 1 
     5   12    4 1 
     6    3    2 1 
     7    3    4 1 
     8    3   11 1 
     9    5    1 1 
    10    5    4 1 
    11    5   14 1 
    12   19   16 1 
    13   16    6 1 
    14   16   18 1 
    15    7    6 2 
    16    6    1 am
    17    1    2 1 
    18   24   23 1 
    19    2    8 1 
    20    4   13 1 
    21   25   23 1 
    22   23   26 1 
    23   23   21 1 
    24    8   21 am
    25    8   20 2 
    26   21   22 1 
