@<TRIPOS>MOLECULE
C:\Users\Praveer\PycharmProjects\pdb_to_mol2_converter\data\pdb\penm.pdb
   14    13     0     0     0
SMALL
GASTEIGER

@<TRIPOS>ATOM
      1 C5          1.0890    0.0350   -0.0850 C.3       1 PEN1        0.0000
      2 H51        -0.0190    0.0360   -0.2030 H         1 PEN1        0.0000
      3 H52         1.3320   -0.4600    0.8820 H         1 PEN1        0.0000
      4 H53         1.5130   -0.5850   -0.9070 H         1 PEN1        0.0000
      5 N6          1.6210    1.4020   -0.1350 N.3       1 PEN1        0.0000
      6 H6          1.1900    1.9070    0.6430 H         1 PEN1        0.0000
      7 C7          3.0910    1.4120   -0.0360 C.3       1 PEN1        0.0000
      8 H71         3.5290    0.8560   -0.8970 H         1 PEN1        0.0000
      9 H72         3.4080    0.8930    0.8980 H         1 PEN1        0.0000
     10 C8          3.5630    2.8400   -0.0430 C.2       1 PEN1        0.0000
     11 H8          2.8930    3.5480   -0.5570 H         1 PEN1        0.0000
     12 C9          4.7260    3.3040    0.4550 C.2       1 PEN1        0.0000
     13 H91         5.4360    2.6260    0.9530 H         1 PEN1        0.0000
     14 H92         4.9910    4.3700    0.3740 H         1 PEN1        0.0000
@<TRIPOS>BOND
     1    4    1 1 
     2    8    7 1 
     3   11   10 1 
     4    2    1 1 
     5    5    1 1 
     6    5    7 1 
     7    5    6 1 
     8    1    3 1 
     9   10    7 1 
    10   10   12 2 
    11    7    9 1 
    12   14   12 1 
    13   12   13 1 
