@<TRIPOS>MOLECULE
C:\Users\Praveer\PycharmProjects\pdb_to_mol2_converter\data\pdb\pent.pdb
   17    16     0     0     0
SMALL
GASTEIGER

@<TRIPOS>ATOM
      1 C1          1.1300    0.0030   -0.0000 C.3       1 PEN1        0.0000
      2 H11         0.0200   -0.0310   -0.0040 H         1 PEN1        0.0000
      3 H12         1.4950   -0.5310    0.9040 H         1 PEN1        0.0000
      4 H13         1.5020   -0.5360   -0.8980 H         1 PEN1        0.0000
      5 C2          1.6250    1.4520   -0.0020 C.3       1 PEN1        0.0000
      6 H21         1.2230    1.9780    0.8930 H         1 PEN1        0.0000
      7 H22         1.2270    1.9730   -0.9030 H         1 PEN1        0.0000
      8 C3          3.1550    1.5710    0.0010 C.3       1 PEN1        0.0000
      9 H31         3.5620    1.0530   -0.8960 H         1 PEN1        0.0000
     10 H32         3.5590    1.0560    0.9010 H         1 PEN1        0.0000
     11 C4          3.6380    3.0280   -0.0010 C.3       1 PEN1        0.0000
     12 H41         3.2250    3.5430    0.8960 H         1 PEN1        0.0000
     13 H42         3.2250    3.5410   -0.8990 H         1 PEN1        0.0000
     14 C5          5.1630    3.1620   -0.0000 C.3       1 PEN1        0.0000
     15 H51         5.5950    2.6750   -0.9010 H         1 PEN1        0.0000
     16 H52         5.5950    2.6760    0.9010 H         1 PEN1        0.0000
     17 H53         5.4620    4.2320   -0.0010 H         1 PEN1        0.0000
@<TRIPOS>BOND
     1    7    5 1 
     2   15   14 1 
     3   13   11 1 
     4    4    1 1 
     5    9    8 1 
     6    2    1 1 
     7    5    1 1 
     8    5    8 1 
     9    5    6 1 
    10   11   14 1 
    11   11    8 1 
    12   11   12 1 
    13   17   14 1 
    14    1    3 1 
    15   14   16 1 
    16    8   10 1 
