@<TRIPOS>MOLECULE
C:\Users\Praveer\PycharmProjects\pdb_to_mol2_converter\data\pdb\pepr.pdb
   28    29     0     0     0
SMALL
GASTEIGER

@<TRIPOS>ATOM
      1 C1          1.1180   -0.0040   -0.0070 C.3       1 PEP1        0.0000
      2 H11         1.4180   -0.5420   -0.9190 H         1 PEP1        0.0000
      3 H12         0.0150   -0.0060   -0.0010 H         1 PEP1        0.0000
      4 C2          1.6540    1.4170   -0.0090 C.3       1 PEP1        0.0000
      5 H2          2.5860    1.4820   -0.5980 H         1 PEP1        0.0000
      6 O2          0.6240    2.2820   -0.4880 O.3       1 PEP1        0.0000
      7 C6          1.0700    3.1210   -1.5440 C.3       1 PEP1        0.0000
      8 H6          1.5890    2.5030   -2.3110 H         1 PEP1        0.0000
      9 O6         -0.0350    3.7490   -2.1730 O.3       1 PEP1        0.0000
     10 C7          0.3290    4.4260   -3.3730 C.3       1 PEP1        0.0000
     11 H71        -0.4290    5.2240   -3.5350 H         1 PEP1        0.0000
     12 H72         0.2730    3.7300   -4.2380 H         1 PEP1        0.0000
     13 C3          1.9120    1.7350    1.4540 C.3       1 PEP1        0.0000
     14 H31         1.0480    2.2550    1.9000 H         1 PEP1        0.0000
     15 H32         2.7700    2.4140    1.5680 H         1 PEP1        0.0000
     16 C4          2.1410    0.3770    2.0920 C.2       1 PEP1        0.0000
     17 H4          2.4990    0.2410    3.1040 H         1 PEP1        0.0000
     18 C5          1.6890   -0.6130    1.2600 C.2       1 PEP1        0.0000
     19 H5          1.6270   -1.6670    1.5000 H         1 PEP1        0.0000
     20 C8          1.7230    5.0790   -3.3050 C.3       1 PEP1        0.0000
     21 H81         1.7570    5.9670   -3.9710 H         1 PEP1        0.0000
     22 H82         2.4800    4.3500   -3.6740 H         1 PEP1        0.0000
     23 C9          2.0840    5.4550   -1.8670 C.3       1 PEP1        0.0000
     24 H91         1.3210    6.1830   -1.5040 H         1 PEP1        0.0000
     25 H92         3.0820    5.9400   -1.8030 H         1 PEP1        0.0000
     26 C10         2.0270    4.2000   -0.9820 C.3       1 PEP1        0.0000
     27 H101        3.0400    3.7580   -0.8830 H         1 PEP1        0.0000
     28 H102        1.6800    4.4970    0.0320 H         1 PEP1        0.0000
@<TRIPOS>BOND
     1   12   10 1 
     2   21   20 1 
     3   22   20 1 
     4   11   10 1 
     5   10   20 1 
     6   10    9 1 
     7   20   23 1 
     8    8    7 1 
     9    9    7 1 
    10   23   25 1 
    11   23   24 1 
    12   23   26 1 
    13    7   26 1 
    14    7    6 1 
    15   26   27 1 
    16   26   28 1 
    17    2    1 1 
    18    5    4 1 
    19    6    4 1 
    20    4    1 1 
    21    4   13 1 
    22    1    3 1 
    23    1   18 1 
    24   18   19 1 
    25   18   16 2 
    26   13   15 1 
    27   13   14 1 
    28   13   16 1 
    29   16   17 1 
