@<TRIPOS>MOLECULE
C:\Users\Praveer\PycharmProjects\pdb_to_mol2_converter\data\pdb\pesu.pdb
   19    19     0     0     0
SMALL
GASTEIGER

@<TRIPOS>ATOM
      1 N1          1.3570   -0.0030   -0.0010 N.ar      1 PES1        0.0000
      2 H1          1.9140   -0.8410    0.0010 H         1 PES1        0.0000
      3 C2          2.0490    1.2090    0.0020 C.ar      1 PES1        0.0000
      4 S2          3.7920    1.2480    0.0050 S.3       1 PES1        0.0000
      5 N3          1.3650    2.3740    0.0020 N.ar      1 PES1        0.0000
      6 C4          0.0040    2.4000    0.0010 C.ar      1 PES1        0.0000
      7 O4         -0.6050    3.4680    0.0010 O.2       1 PES1        0.0000
      8 C5         -0.7130    1.1580   -0.0020 C.ar      1 PES1        0.0000
      9 H5         -1.7990    1.1510   -0.0020 H         1 PES1        0.0000
     10 C6         -0.0010   -0.0040   -0.0020 C.ar      1 PES1        0.0000
     11 H6         -0.5110   -0.9710   -0.0030 H         1 PES1        0.0000
     12 C20         4.1470    3.0420    0.0270 C.3       1 PES1        0.0000
     13 H201        3.6900    3.5160    0.9250 H         1 PES1        0.0000
     14 H202        3.7020    3.5380   -0.8630 H         1 PES1        0.0000
     15 C21         5.6430    3.2250    0.0180 C.2       1 PES1        0.0000
     16 H21         6.1570    2.8220   -0.8710 H         1 PES1        0.0000
     17 C22         6.3890    3.8160    0.9710 C.2       1 PES1        0.0000
     18 H221        5.9210    4.2310    1.8780 H         1 PES1        0.0000
     19 H222        7.4830    3.8970    0.8690 H         1 PES1        0.0000
@<TRIPOS>BOND
     1   16   15 1 
     2   14   12 1 
     3   11   10 1 
     4    8    9 1 
     5    8   10 ar
     6    8    6 ar
     7   10    1 ar
     8    1    2 1 
     9    1    3 ar
    10    6    7 2 
    11    6    5 ar
    12    3    5 ar
    13    3    4 1 
    14    4   12 1 
    15   15   12 1 
    16   15   17 2 
    17   12   13 1 
    18   19   17 1 
    19   17   18 1 
