@<TRIPOS>MOLECULE
C:\Users\Praveer\PycharmProjects\pdb_to_mol2_converter\data\pdb\pha.pdb
   14    13     0     0     0
SMALL
GASTEIGER

@<TRIPOS>ATOM
      1 P1          1.5770   -0.0220    0.2330 P.3       1 PHA1        0.0000
      2 O3          0.0810   -0.2120    0.2500 O.2       1 PHA1        0.0000
      3 O4          2.4620   -0.7720    1.1920 O.3       1 PHA1        0.0000
      4 O2          2.1250   -0.3320   -1.2680 O.3       1 PHA1        0.0000
      5 N1          1.9750    1.6500    0.3060 N.3       1 PHA1        0.0000
      6 H1          2.9550    1.7720    0.0720 H         1 PHA1        0.0000
      7 C1          2.1020   -1.6760   -1.7440 C.3       1 PHA1        0.0000
      8 H11         1.0600   -2.0690   -1.7870 H         1 PHA1        0.0000
      9 H12         2.7160   -2.3410   -1.0930 H         1 PHA1        0.0000
     10 H13         2.5270   -1.7110   -2.7700 H         1 PHA1        0.0000
     11 C2          1.1320    2.5480   -0.4620 C.3       1 PHA1        0.0000
     12 H21         0.0720    2.4600   -0.1250 H         1 PHA1        0.0000
     13 H22         1.1990    2.3050   -1.5480 H         1 PHA1        0.0000
     14 H23         1.4740    3.5940   -0.2970 H         1 PHA1        0.0000
@<TRIPOS>BOND
     1   10    7 1 
     2    8    7 1 
     3    7    4 1 
     4    7    9 1 
     5   13   11 1 
     6    4    1 1 
     7   11   14 1 
     8   11   12 1 
     9   11    5 1 
    10    6    5 1 
    11    1    2 2 
    12    1    5 1 
    13    1    3 1 
