@<TRIPOS>MOLECULE
C:\Users\Praveer\PycharmProjects\pdb_to_mol2_converter\data\pdb\phek.pdb
   20    20     0     0     0
SMALL
GASTEIGER

@<TRIPOS>ATOM
      1 C1          1.0680   -0.0960    0.0120 C.3       1 PHE1        0.0000
      2 H11         1.4080   -0.6680   -0.8770 H         1 PHE1        0.0000
      3 H12        -0.0440   -0.0910    0.0230 H         1 PHE1        0.0000
      4 H13         1.4180   -0.6260    0.9250 H         1 PHE1        0.0000
      5 C2          1.6180    1.3430   -0.0240 C.3       1 PHE1        0.0000
      6 H21         1.2620    1.8390   -0.9530 H         1 PHE1        0.0000
      7 H22         2.7290    1.3020   -0.0490 H         1 PHE1        0.0000
      8 C3          1.1930    2.1780    1.1620 C.2       1 PHE1        0.0000
      9 O3          0.4760    1.6820    2.0310 O.2       1 PHE1        0.0000
     10 C4          1.6380    3.5950    1.2820 C.ar      1 PHE1        0.0000
     11 C5          1.2300    4.3550    2.3970 C.ar      1 PHE1        0.0000
     12 H5          0.6010    3.9110    3.1570 H         1 PHE1        0.0000
     13 C6          1.6320    5.6900    2.5400 C.ar      1 PHE1        0.0000
     14 H6          1.3120    6.2610    3.4000 H         1 PHE1        0.0000
     15 C7          2.4460    6.2820    1.5680 C.ar      1 PHE1        0.0000
     16 H7          2.7550    7.3120    1.6780 H         1 PHE1        0.0000
     17 C8          2.8600    5.5420    0.4550 C.ar      1 PHE1        0.0000
     18 H8          3.4890    6.0030   -0.2940 H         1 PHE1        0.0000
     19 C9          2.4590    4.2070    0.3100 C.ar      1 PHE1        0.0000
     20 H9          2.7960    3.6640   -0.5600 H         1 PHE1        0.0000
@<TRIPOS>BOND
     1    6    5 1 
     2    2    1 1 
     3   20   19 1 
     4   18   17 1 
     5    7    5 1 
     6    5    1 1 
     7    5    8 1 
     8    1    3 1 
     9    1    4 1 
    10   19   17 ar
    11   19   10 ar
    12   17   15 ar
    13    8   10 1 
    14    8    9 2 
    15   10   11 ar
    16   15   16 1 
    17   15   13 ar
    18   11   13 ar
    19   11   12 1 
    20   13   14 1 
