@<TRIPOS>MOLECULE
C:\Users\Praveer\PycharmProjects\pdb_to_mol2_converter\data\pdb\phen.pdb
   13    13     0     0     0
SMALL
GASTEIGER

@<TRIPOS>ATOM
      1 CG         -0.0140   -0.0240    0.0000 C.ar      1 PHE1        0.0000
      2 HG         -0.5530   -0.9610    0.0000 H         1 PHE1        0.0000
      3 CD1         1.3880   -0.0240   -0.0000 C.ar      1 PHE1        0.0000
      4 HD1         1.9300   -0.9580    0.0000 H         1 PHE1        0.0000
      5 CD2        -0.7160    1.1890    0.0000 C.ar      1 PHE1        0.0000
      6 HD2        -1.7970    1.1870    0.0000 H         1 PHE1        0.0000
      7 CE1         2.0860    1.1920   -0.0000 C.ar      1 PHE1        0.0000
      8 HE1         3.1660    1.1990   -0.0000 H         1 PHE1        0.0000
      9 CE2        -0.0150    2.4050   -0.0000 C.ar      1 PHE1        0.0000
     10 HE2        -0.5620    3.3350   -0.0000 H         1 PHE1        0.0000
     11 CZ          1.3860    2.4040   -0.0000 C.ar      1 PHE1        0.0000
     12 OH          2.0980    3.6190   -0.0000 O.3       1 PHE1        0.0000
     13 HH          1.4560    4.3310    0.0000 H         1 PHE1        0.0000
@<TRIPOS>BOND
     1    1    2 1 
     2    1    3 ar
     3    1    5 ar
     4    3    4 1 
     5    3    7 ar
     6    5    6 1 
     7    5    9 ar
     8    7    8 1 
     9    7   11 ar
    10    9   10 1 
    11    9   11 ar
    12   11   12 1 
    13   12   13 1 
