@<TRIPOS>MOLECULE
C:\Users\Praveer\PycharmProjects\pdb_to_mol2_converter\data\pdb\pheo.pdb
   12    12     0     0     0
SMALL
GASTEIGER

@<TRIPOS>ATOM
      1 CG         -0.0170   -0.0290    0.0000 C.3       1 PHE1        0.0000
      2 HG         -0.5560   -0.9620    0.0000 H         1 PHE1        0.0000
      3 CD1         1.3870   -0.0350   -0.0000 C.2       1 PHE1        0.0000
      4 HD1         1.9280   -0.9690   -0.0000 H         1 PHE1        0.0000
      5 CD2        -0.7240    1.1840    0.0000 C.2       1 PHE1        0.0000
      6 HD2        -1.8030    1.1850    0.0000 H         1 PHE1        0.0000
      7 CE1         2.0750    1.1900   -0.0000 C.2       1 PHE1        0.0000
      8 HE1         3.1440    1.2670   -0.0000 H         1 PHE1        0.0000
      9 CE2        -0.0070    2.3920    0.0000 C.2       1 PHE1        0.0000
     10 HE2        -0.4750    3.3570    0.0000 H         1 PHE1        0.0000
     11 CZ          1.3800    2.3900   -0.0000 C.2       1 PHE1        0.0000
     12 OH          2.0070    3.4760   -0.0000 O.2       1 PHE1        0.0000
@<TRIPOS>BOND
     1    1    2 1 
     2    1    3 1 
     3    1    5 1 
     4    3    4 1 
     5    3    7 2 
     6    5    6 1 
     7    5    9 2 
     8    7    8 1 
     9    7   11 1 
    10    9   10 1 
    11    9   11 1 
    12   11   12 2 
