@<TRIPOS>MOLECULE
C:\Users\Praveer\PycharmProjects\pdb_to_mol2_converter\data\pdb\phhz.pdb
   16    16     0     0     0
SMALL
GASTEIGER

@<TRIPOS>ATOM
      1 CG         -0.0220   -0.0370    0.1280 C.ar      1 PHH1        0.0000
      2 HG         -0.5540   -0.9700    0.2520 H         1 PHH1        0.0000
      3 CD1         1.3720   -0.0340    0.0140 C.ar      1 PHH1        0.0000
      4 HD1         1.9190   -0.9660    0.0530 H         1 PHH1        0.0000
      5 CD2        -0.7300    1.1700    0.0800 C.ar      1 PHH1        0.0000
      6 HD2        -1.8070    1.1710    0.1700 H         1 PHH1        0.0000
      7 CE1         2.0590    1.1780   -0.1450 C.ar      1 PHH1        0.0000
      8 HE1         3.1330    1.1580   -0.2280 H         1 PHH1        0.0000
      9 CE2        -0.0380    2.3790   -0.0820 C.ar      1 PHH1        0.0000
     10 HE2        -0.6000    3.3010   -0.1240 H         1 PHH1        0.0000
     11 C6          1.3620    2.4060   -0.1940 C.ar      1 PHH1        0.0000
     12 N7          1.9650    3.6880   -0.3290 N.pl3     1 PHH1        0.0000
     13 H71         1.6790    4.3190    0.4220 H         1 PHH1        0.0000
     14 N8          3.3890    3.8380   -0.4290 N.3       1 PHH1        0.0000
     15 H81         3.5890    4.2890   -1.3210 H         1 PHH1        0.0000
     16 H82         3.8100    2.9130   -0.4560 H         1 PHH1        0.0000
@<TRIPOS>BOND
     1   15   14 1 
     2   16   14 1 
     3   14   12 1 
     4   12   11 1 
     5   12   13 1 
     6    8    7 1 
     7   11    7 ar
     8   11    9 ar
     9    7    3 ar
    10   10    9 1 
    11    9    5 ar
    12    3    4 1 
    13    3    1 ar
    14    5    1 ar
    15    5    6 1 
    16    1    2 1 
