@<TRIPOS>MOLECULE
C:\Users\Praveer\PycharmProjects\pdb_to_mol2_converter\data\pdb\phmk.pdb
   17    17     0     0     0
SMALL
GASTEIGER

@<TRIPOS>ATOM
      1 C1          1.0000   -0.0010    0.0000 C.3       1 PHM1        0.0000
      2 H11        -0.1070    0.0820    0.0000 H         1 PHM1        0.0000
      3 H12         1.3180   -0.5520    0.9090 H         1 PHM1        0.0000
      4 H13         1.3180   -0.5520   -0.9090 H         1 PHM1        0.0000
      5 C2          1.5860    1.3800   -0.0000 C.2       1 PHM1        0.0000
      6 O2          0.8320    2.3510   -0.0000 O.2       1 PHM1        0.0000
      7 C3          3.0660    1.5500    0.0000 C.ar      1 PHM1        0.0000
      8 C4          3.9560    0.4530    0.0000 C.ar      1 PHM1        0.0000
      9 H4          3.5980   -0.5650    0.0000 H         1 PHM1        0.0000
     10 C5          5.3430    0.6610    0.0000 C.ar      1 PHM1        0.0000
     11 H5          6.0170   -0.1840    0.0000 H         1 PHM1        0.0000
     12 C6          5.8570    1.9620    0.0000 C.ar      1 PHM1        0.0000
     13 H6          6.9270    2.1210    0.0000 H         1 PHM1        0.0000
     14 C7          4.9880    3.0590    0.0000 C.ar      1 PHM1        0.0000
     15 H7          5.3860    4.0640   -0.0000 H         1 PHM1        0.0000
     16 C8          3.6030    2.8540   -0.0000 C.ar      1 PHM1        0.0000
     17 H8          2.9450    3.7130   -0.0000 H         1 PHM1        0.0000
@<TRIPOS>BOND
     1    4    1 1 
     2    1    2 1 
     3    1    5 1 
     4    1    3 1 
     5    5    6 2 
     6    5    7 1 
     7    7    8 ar
     8    7   16 ar
     9    8    9 1 
    10    8   10 ar
    11   10   11 1 
    12   10   12 ar
    13   12   13 1 
    14   12   14 ar
    15   14   15 1 
    16   14   16 ar
    17   16   17 1 
