@<TRIPOS>MOLECULE
C:\Users\Praveer\PycharmProjects\pdb_to_mol2_converter\data\pdb\phpc.pdb
  154   153     0     0     0
SMALL
GASTEIGER

@<TRIPOS>ATOM
      1 N           4.1240    1.5160    5.0060 N.4       1 PHP1        0.0000
      2 C13         2.6980    1.7820    5.3880 C.3       1 PHP1        0.0000
      3 H13A        2.4940    2.8460    5.4030 H         1 PHP1        0.0000
      4 H13B        2.4620    1.3670    6.3570 H         1 PHP1        0.0000
      5 H13C        2.0330    1.3390    4.6520 H         1 PHP1        0.0000
      6 C14         5.0420    2.1530    6.0070 C.3       1 PHP1        0.0000
      7 H14A        4.8650    1.7590    7.0000 H         1 PHP1        0.0000
      8 H14B        4.8950    3.2260    6.0390 H         1 PHP1        0.0000
      9 H14C        6.0790    1.9660    5.7520 H         1 PHP1        0.0000
     10 C15         4.3590    0.0340    4.9870 C.3       1 PHP1        0.0000
     11 H15A        3.7230   -0.4320    4.2380 H         1 PHP1        0.0000
     12 H15B        4.1460   -0.4160    5.9460 H         1 PHP1        0.0000
     13 H15C        5.3830   -0.1940    4.7140 H         1 PHP1        0.0000
     14 C12         4.3860    2.0810    3.6230 C.3       1 PHP1        0.0000
     15 H12A        5.4060    1.8800    3.3070 H         1 PHP1        0.0000
     16 H12B        4.2870    3.1610    3.6130 H         1 PHP1        0.0000
     17 C11         3.4900    1.5630    2.5050 C.3       1 PHP1        0.0000
     18 H11A        2.4210    1.8310    2.6670 H         1 PHP1        0.0000
     19 H11B        3.5790    0.4530    2.4200 H         1 PHP1        0.0000
     20 P           3.6180    1.6000   -0.0690 P.3       1 PHP1        0.0000
     21 O13         4.2780    0.2760   -0.1470 O.3       1 PHP1        0.0000
     22 O14         3.8910    2.5870   -1.1270 O.2       1 PHP1        0.0000
     23 O11         2.0480    1.3820    0.0860 O.3       1 PHP1        0.0000
     24 O12         3.9780    2.2210    1.3500 O.3       1 PHP1        0.0000
     25 C1          1.5350    0.0640   -0.1240 C.3       1 PHP1        0.0000
     26 HA          1.9000   -0.6300    0.6670 H         1 PHP1        0.0000
     27 HB          1.8610   -0.3290   -1.1180 H         1 PHP1        0.0000
     28 C2         -0.0160    0.0450   -0.1110 C.3       1 PHP1        0.0000
     29 HS         -0.3460    0.7560   -0.9070 H         1 PHP1        0.0000
     30 O21        -0.4850    0.4330    1.2010 O.3       1 PHP1        0.0000
     31 C21        -1.6520    1.0710    1.1960 C.2       1 PHP1        0.0000
     32 O22        -2.3100    1.3470    0.2120 O.2       1 PHP1        0.0000
     33 C22        -2.0420    1.4440    2.6280 C.3       1 PHP1        0.0000
     34 H2R        -2.2680    2.5280    2.6380 H         1 PHP1        0.0000
     35 H2S        -1.1740    1.2630    3.2930 H         1 PHP1        0.0000
     36 C3         -0.5110   -1.3860   -0.4770 C.3       1 PHP1        0.0000
     37 HX         -0.0740   -2.0800    0.2750 H         1 PHP1        0.0000
     38 HY         -0.0850   -1.6740   -1.4660 H         1 PHP1        0.0000
     39 O31        -1.9440   -1.5230   -0.4360 O.3       1 PHP1        0.0000
     40 C31        -2.5770   -1.1480   -1.5470 C.2       1 PHP1        0.0000
     41 O32        -2.0460   -0.7840   -2.5810 O.2       1 PHP1        0.0000
     42 C32        -4.0740   -1.2870   -1.3210 C.3       1 PHP1        0.0000
     43 H2X        -4.6020   -0.7160   -2.1100 H         1 PHP1        0.0000
     44 H2Y        -4.2990   -0.8290   -0.3380 H         1 PHP1        0.0000
     45 C23        -3.2650    0.6390    3.1460 C.3       1 PHP1        0.0000
     46 H3R        -3.4040    0.9010    4.2230 H         1 PHP1        0.0000
     47 C217       -3.0010   -0.8750    3.0810 C.3       1 PHP1        0.0000
     48 H17R       -2.0430   -1.1250    3.5850 H         1 PHP1        0.0000
     49 H17S       -2.9460   -1.2220    2.0270 H         1 PHP1        0.0000
     50 H17T       -3.8200   -1.4320    3.5840 H         1 PHP1        0.0000
     51 C24        -4.5890    0.9950    2.4350 C.3       1 PHP1        0.0000
     52 H4R        -5.3450    0.2330    2.7220 H         1 PHP1        0.0000
     53 H4S        -4.4630    0.9250    1.3350 H         1 PHP1        0.0000
     54 C25        -5.1600    2.3750    2.8000 C.3       1 PHP1        0.0000
     55 H5R        -4.4110    3.1660    2.5750 H         1 PHP1        0.0000
     56 H5S        -5.3670    2.3970    3.8910 H         1 PHP1        0.0000
     57 C26        -6.4450    2.6870    2.0140 C.3       1 PHP1        0.0000
     58 H6R        -7.1880    1.8770    2.1790 H         1 PHP1        0.0000
     59 H6S        -6.1820    2.6800    0.9340 H         1 PHP1        0.0000
     60 C27        -7.1050    4.0390    2.3700 C.3       1 PHP1        0.0000
     61 H7R        -6.3130    4.8240    2.3530 H         1 PHP1        0.0000
     62 C218       -7.7150    4.0130    3.7830 C.3       1 PHP1        0.0000
     63 H18R       -6.9350    3.8120    4.5460 H         1 PHP1        0.0000
     64 H18S       -8.4900    3.2210    3.8540 H         1 PHP1        0.0000
     65 H18T       -8.1880    4.9890    4.0200 H         1 PHP1        0.0000
     66 C28        -8.1790    4.4470    1.3360 C.3       1 PHP1        0.0000
     67 H8R        -8.7550    5.3040    1.7530 H         1 PHP1        0.0000
     68 H8S        -8.8860    3.6030    1.1930 H         1 PHP1        0.0000
     69 C29        -7.6030    4.8830   -0.0220 C.3       1 PHP1        0.0000
     70 H9R        -7.0590    4.0340   -0.4910 H         1 PHP1        0.0000
     71 H9S        -6.8680    5.6980    0.1560 H         1 PHP1        0.0000
     72 C210       -8.6880    5.3660   -0.9990 C.3       1 PHP1        0.0000
     73 H10R       -9.2360    6.2230   -0.5510 H         1 PHP1        0.0000
     74 H10S       -9.4130    4.5330   -1.1300 H         1 PHP1        0.0000
     75 C211       -8.1410    5.7880   -2.3820 C.3       1 PHP1        0.0000
     76 H11R       -7.5190    4.9470   -2.7690 H         1 PHP1        0.0000
     77 C219       -7.2410    7.0350   -2.2820 C.3       1 PHP1        0.0000
     78 H19R       -6.3590    6.8390   -1.6380 H         1 PHP1        0.0000
     79 H19S       -7.8120    7.8860   -1.8540 H         1 PHP1        0.0000
     80 H19T       -6.8750    7.3280   -3.2890 H         1 PHP1        0.0000
     81 C212       -9.2610    6.0420   -3.4180 C.3       1 PHP1        0.0000
     82 H12R       -8.7720    6.3580   -4.3670 H         1 PHP1        0.0000
     83 H12S       -9.9000    6.8830   -3.0730 H         1 PHP1        0.0000
     84 C213      -10.1400    4.8170   -3.7160 C.3       1 PHP1        0.0000
     85 H13R      -10.8200    4.6310   -2.8560 H         1 PHP1        0.0000
     86 H13S       -9.4820    3.9280   -3.8340 H         1 PHP1        0.0000
     87 C214      -10.9780    4.9960   -4.9930 C.3       1 PHP1        0.0000
     88 H14R      -10.2930    5.0530   -5.8670 H         1 PHP1        0.0000
     89 H14S      -11.5230    5.9640   -4.9290 H         1 PHP1        0.0000
     90 C215      -12.0110    3.8770   -5.2430 C.3       1 PHP1        0.0000
     91 H15R      -12.7320    3.8830   -4.3910 H         1 PHP1        0.0000
     92 C220      -12.7990    4.1510   -6.5350 C.3       1 PHP1        0.0000
     93 H20R      -12.1150    4.1390   -7.4100 H         1 PHP1        0.0000
     94 H20S      -13.2930    5.1440   -6.4860 H         1 PHP1        0.0000
     95 H20T      -13.5780    3.3750   -6.6870 H         1 PHP1        0.0000
     96 C216      -11.3670    2.4820   -5.3060 C.3       1 PHP1        0.0000
     97 H16R      -10.8770    2.2300   -4.3430 H         1 PHP1        0.0000
     98 H16S      -10.6050    2.4440   -6.1130 H         1 PHP1        0.0000
     99 H16T      -12.1390    1.7110   -5.5130 H         1 PHP1        0.0000
    100 C33        -4.4940   -2.7760   -1.3550 C.3       1 PHP1        0.0000
    101 H3X        -3.7750   -3.3650   -0.7330 H         1 PHP1        0.0000
    102 C317       -4.4340   -3.3300   -2.7890 C.3       1 PHP1        0.0000
    103 H17X       -3.4150   -3.2160   -3.2170 H         1 PHP1        0.0000
    104 H17Y       -5.1490   -2.7850   -3.4410 H         1 PHP1        0.0000
    105 H17Z       -4.6980   -4.4090   -2.8020 H         1 PHP1        0.0000
    106 C34        -5.8870   -3.0040   -0.7300 C.3       1 PHP1        0.0000
    107 H4X        -6.1450   -4.0790   -0.8630 H         1 PHP1        0.0000
    108 H4Y        -6.6490   -2.4060   -1.2730 H         1 PHP1        0.0000
    109 C35        -5.9270   -2.6790    0.7720 C.3       1 PHP1        0.0000
    110 H5X        -5.9540   -1.5770    0.9170 H         1 PHP1        0.0000
    111 H5Y        -4.9880   -3.0570    1.2360 H         1 PHP1        0.0000
    112 C36        -7.1120   -3.3320    1.5000 C.3       1 PHP1        0.0000
    113 H6X        -7.0610   -4.4280    1.3150 H         1 PHP1        0.0000
    114 H6Y        -8.0720   -2.9650    1.0820 H         1 PHP1        0.0000
    115 C37        -7.0880   -3.0960    3.0250 C.3       1 PHP1        0.0000
    116 H7X        -6.0270   -3.1890    3.3550 H         1 PHP1        0.0000
    117 C318       -7.9020   -4.1790    3.7530 C.3       1 PHP1        0.0000
    118 H18X       -7.5310   -5.1900    3.4790 H         1 PHP1        0.0000
    119 H18Y       -8.9740   -4.1070    3.4710 H         1 PHP1        0.0000
    120 H18Z       -7.8150   -4.0620    4.8530 H         1 PHP1        0.0000
    121 C38        -7.5770   -1.6790    3.3950 C.3       1 PHP1        0.0000
    122 H8X        -8.6840   -1.6500    3.3000 H         1 PHP1        0.0000
    123 H8Y        -7.1700   -0.9460    2.6700 H         1 PHP1        0.0000
    124 C39        -7.1720   -1.2390    4.8100 C.3       1 PHP1        0.0000
    125 H9X        -6.0620   -1.2360    4.8740 H         1 PHP1        0.0000
    126 H9Y        -7.5540   -1.9740    5.5520 H         1 PHP1        0.0000
    127 C310       -7.7200    0.1500    5.1760 C.3       1 PHP1        0.0000
    128 H10X       -8.8170    0.1320    4.9930 H         1 PHP1        0.0000
    129 H10Y       -7.2760    0.9160    4.5050 H         1 PHP1        0.0000
    130 C311       -7.4630    0.5470    6.6470 C.3       1 PHP1        0.0000
    131 H11X       -7.8930   -0.2580    7.2890 H         1 PHP1        0.0000
    132 C319       -5.9570    0.6440    6.9550 C.3       1 PHP1        0.0000
    133 H19X       -5.4810    1.4010    6.2970 H         1 PHP1        0.0000
    134 H19Y       -5.4550   -0.3320    6.7950 H         1 PHP1        0.0000
    135 H19Z       -5.7990    0.9460    8.0120 H         1 PHP1        0.0000
    136 C312       -8.1620    1.8670    7.0440 C.3       1 PHP1        0.0000
    137 H12X       -7.7100    2.7070    6.4740 H         1 PHP1        0.0000
    138 H12Y       -7.9530    2.0450    8.1230 H         1 PHP1        0.0000
    139 C313       -9.6860    1.8750    6.8390 C.3       1 PHP1        0.0000
    140 H13X      -10.1130    0.9300    7.2410 H         1 PHP1        0.0000
    141 H13Y       -9.9060    1.9150    5.7500 H         1 PHP1        0.0000
    142 C314      -10.3630    3.0610    7.5450 C.3       1 PHP1        0.0000
    143 H14X       -9.9300    4.0150    7.1740 H         1 PHP1        0.0000
    144 H14Y      -10.1370    2.9890    8.6330 H         1 PHP1        0.0000
    145 C315      -11.8960    3.1030    7.3730 C.3       1 PHP1        0.0000
    146 H15X      -12.2950    2.0850    7.6000 H         1 PHP1        0.0000
    147 C320      -12.3040    3.4710    5.9370 C.3       1 PHP1        0.0000
    148 H20X      -11.9240    2.7210    5.2130 H         1 PHP1        0.0000
    149 H20Y      -11.8930    4.4660    5.6650 H         1 PHP1        0.0000
    150 H20Z      -13.4100    3.5120    5.8490 H         1 PHP1        0.0000
    151 C316      -12.5290    4.0850    8.3720 C.3       1 PHP1        0.0000
    152 H16X      -12.1460    5.1130    8.1990 H         1 PHP1        0.0000
    153 H16Y      -12.2850    3.7870    9.4130 H         1 PHP1        0.0000
    154 H16Z      -13.6330    4.0940    8.2570 H         1 PHP1        0.0000
@<TRIPOS>BOND
     1   93   92 1 
     2   95   92 1 
     3   92   94 1 
     4   92   90 1 
     5   98   96 1 
     6   88   87 1 
     7   99   96 1 
     8   96   90 1 
     9   96   97 1 
    10   90   87 1 
    11   90   91 1 
    12   87   89 1 
    13   87   84 1 
    14   82   81 1 
    15   86   84 1 
    16   84   81 1 
    17   84   85 1 
    18  104  102 1 
    19   81   83 1 
    20   81   75 1 
    21   80   77 1 
    22  103  102 1 
    23  105  102 1 
    24  102  100 1 
    25   76   75 1 
    26   41   40 2 
    27   75   77 1 
    28   75   72 1 
    29   77   79 1 
    30   77   78 1 
    31   43   42 1 
    32   40   42 1 
    33   40   39 1 
    34   38   36 1 
    35  100   42 1 
    36  100  101 1 
    37  100  106 1 
    38   42   44 1 
    39  108  106 1 
    40   74   72 1 
    41   22   20 2 
    42   27   25 1 
    43   72   73 1 
    44   72   69 1 
    45   29   28 1 
    46  107  106 1 
    47  106  109 1 
    48   70   69 1 
    49   36   39 1 
    50   36   28 1 
    51   36   37 1 
    52   21   20 1 
    53   25   28 1 
    54   25   23 1 
    55   25   26 1 
    56   28   30 1 
    57   20   23 1 
    58   20   24 1 
    59   69   71 1 
    60   69   66 1 
    61   32   31 2 
    62  109  110 1 
    63  109  111 1 
    64  109  112 1 
    65   59   57 1 
    66  114  112 1 
    67   68   66 1 
    68   31   30 1 
    69   31   33 1 
    70  113  112 1 
    71   53   51 1 
    72   66   67 1 
    73   66   60 1 
    74   24   17 1 
    75  112  115 1 
    76   57   58 1 
    77   57   60 1 
    78   57   54 1 
    79   49   47 1 
    80   61   60 1 
    81   60   62 1 
    82   19   17 1 
    83   51   52 1 
    84   51   54 1 
    85   51   45 1 
    86   17   18 1 
    87   17   14 1 
    88   55   54 1 
    89   33   34 1 
    90   33   45 1 
    91   33   35 1 
    92  123  121 1 
    93   54   56 1 
    94  115  116 1 
    95  115  121 1 
    96  115  117 1 
    97   47   45 1 
    98   47   50 1 
    99   47   48 1 
   100   45   46 1 
   101  122  121 1 
   102   15   14 1 
   103  121  124 1 
   104  119  117 1 
   105  118  117 1 
   106   16   14 1 
   107   14    1 1 
   108  117  120 1 
   109   62   64 1 
   110   62   65 1 
   111   62   63 1 
   112   11   10 1 
   113  129  127 1 
   114    5    2 1 
   115   13   10 1 
   116  124  125 1 
   117  124  127 1 
   118  124  126 1 
   119   10    1 1 
   120   10   12 1 
   121  128  127 1 
   122    1    2 1 
   123    1    6 1 
   124  127  130 1 
   125  148  147 1 
   126    2    3 1 
   127    2    4 1 
   128  149  147 1 
   129  141  139 1 
   130    9    6 1 
   131  150  147 1 
   132  147  145 1 
   133    6    8 1 
   134    6    7 1 
   135  133  132 1 
   136  137  136 1 
   137  130  132 1 
   138  130  136 1 
   139  130  131 1 
   140  134  132 1 
   141  139  136 1 
   142  139  140 1 
   143  139  142 1 
   144  132  135 1 
   145  136  138 1 
   146  143  142 1 
   147  145  142 1 
   148  145  146 1 
   149  145  151 1 
   150  142  144 1 
   151  152  151 1 
   152  154  151 1 
   153  151  153 1 
