@<TRIPOS>MOLECULE
C:\Users\Praveer\PycharmProjects\pdb_to_mol2_converter\data\pdb\pip.pdb
   18    18     0     0     0
SMALL
GASTEIGER

@<TRIPOS>ATOM
      1 N1          1.5030   -0.0220    0.0060 N.4       1 PIP1        0.0000
      2 H11         1.8320   -0.5600    0.7910 H         1 PIP1        0.0000
      3 H12         1.8030   -0.5130   -0.8220 H         1 PIP1        0.0000
      4 C2          2.1430    1.3450    0.0060 C.3       1 PIP1        0.0000
      5 H21         3.2310    1.1650    0.0260 H         1 PIP1        0.0000
      6 H22         1.8230    1.8200    0.9490 H         1 PIP1        0.0000
      7 C6         -0.0050    0.0360    0.0070 C.3       1 PIP1        0.0000
      8 H61        -0.2800    0.5380    0.9500 H         1 PIP1        0.0000
      9 H62        -0.3430   -1.0140    0.0280 H         1 PIP1        0.0000
     10 C3          1.6860    2.1180   -1.2350 C.3       1 PIP1        0.0000
     11 H31         2.0630    1.6210   -2.1570 H         1 PIP1        0.0000
     12 H32         2.1110    3.1480   -1.2130 H         1 PIP1        0.0000
     13 C4          0.1510    2.1960   -1.2880 C.3       1 PIP1        0.0000
     14 H41        -0.1660    2.7140   -2.2230 H         1 PIP1        0.0000
     15 H42        -0.2200    2.8050   -0.4320 H         1 PIP1        0.0000
     16 C5         -0.4840    0.7950   -1.2330 C.3       1 PIP1        0.0000
     17 H51        -1.5930    0.8900   -1.2100 H         1 PIP1        0.0000
     18 H52        -0.2160    0.2320   -2.1560 H         1 PIP1        0.0000
@<TRIPOS>BOND
     1   14   13 1 
     2   11   10 1 
     3   18   16 1 
     4   13   10 1 
     5   13   16 1 
     6   13   15 1 
     7   10   12 1 
     8   10    4 1 
     9   16   17 1 
    10   16    7 1 
    11    3    1 1 
    12    1    4 1 
    13    1    7 1 
    14    1    2 1 
    15    4    5 1 
    16    4    6 1 
    17    7    9 1 
    18    7    8 1 
