@<TRIPOS>MOLECULE
C:\Users\Praveer\PycharmProjects\pdb_to_mol2_converter\data\pdb\pip1.pdb
   21    21     0     0     0
SMALL
GASTEIGER

@<TRIPOS>ATOM
      1 C1          2.0110   -0.8960   -1.1620 C.3       1 PIP1        0.0000
      2 H1A         1.5260   -1.8880   -1.0290 H         1 PIP1        0.0000
      3 H1B         3.1110   -0.9540   -1.0190 H         1 PIP1        0.0000
      4 H1C         1.7420   -0.4300   -2.1320 H         1 PIP1        0.0000
      5 N1          1.4780   -0.0020   -0.0680 N.4       1 PIP1        0.0000
      6 HNA         1.7370   -0.4500    0.8410 H         1 PIP1        0.0000
      7 C12         2.1420    1.3590   -0.0820 C.3       1 PIP1        0.0000
      8 H12A        3.2260    1.1680   -0.1210 H         1 PIP1        0.0000
      9 H12B        1.8860    1.8030    0.8960 H         1 PIP1        0.0000
     10 C16        -0.0360    0.0750   -0.0930 C.3       1 PIP1        0.0000
     11 H16A       -0.3070    0.5090    0.8850 H         1 PIP1        0.0000
     12 H16B       -0.3920   -0.9660   -0.1390 H         1 PIP1        0.0000
     13 C13         1.6360    2.2300   -1.2400 C.3       1 PIP1        0.0000
     14 H13A        1.9620    1.8220   -2.2210 H         1 PIP1        0.0000
     15 H13B        2.0760    3.2500   -1.1500 H         1 PIP1        0.0000
     16 C14         0.1040    2.3360   -1.2070 C.3       1 PIP1        0.0000
     17 H14A       -0.2500    2.9430   -2.0720 H         1 PIP1        0.0000
     18 H14B       -0.2120    2.8640   -0.2790 H         1 PIP1        0.0000
     19 C15        -0.5440    0.9440   -1.2510 C.3       1 PIP1        0.0000
     20 H15A       -1.6500    1.0520   -1.1690 H         1 PIP1        0.0000
     21 H15B       -0.3370    0.4660   -2.2330 H         1 PIP1        0.0000
@<TRIPOS>BOND
     1   21   19 1 
     2   14   13 1 
     3    4    1 1 
     4   17   16 1 
     5   19   16 1 
     6   19   20 1 
     7   19   10 1 
     8   13   16 1 
     9   13   15 1 
    10   13    7 1 
    11   16   18 1 
    12    1    2 1 
    13    1    3 1 
    14    1    5 1 
    15   12   10 1 
    16    8    7 1 
    17   10    5 1 
    18   10   11 1 
    19    7    5 1 
    20    7    9 1 
    21    5    6 1 
