@<TRIPOS>MOLECULE
C:\Users\Praveer\PycharmProjects\pdb_to_mol2_converter\data\pdb\pip2.pdb
   21    21     0     0     0
SMALL
GASTEIGER

@<TRIPOS>ATOM
      1 C1          1.9640   -0.7900    1.1750 C.3       1 PIP1        0.0000
      2 H1A         3.0690   -0.8600    1.0750 H         1 PIP1        0.0000
      3 H1B         1.4800   -1.7870    1.0970 H         1 PIP1        0.0000
      4 H1C         1.6620   -0.2480    2.0970 H         1 PIP1        0.0000
      5 N1          1.4730    0.0250    0.0090 N.4       1 PIP1        0.0000
      6 HNA         1.7410   -0.4540   -0.8800 H         1 PIP1        0.0000
      7 C12         2.1340    1.3810   -0.0180 C.3       1 PIP1        0.0000
      8 H12A        3.2190    1.1880   -0.0210 H         1 PIP1        0.0000
      9 H12B        1.8400    1.8710    0.9250 H         1 PIP1        0.0000
     10 C16        -0.0330    0.1150    0.0110 C.3       1 PIP1        0.0000
     11 H16A       -0.2970    0.6220    0.9540 H         1 PIP1        0.0000
     12 H16B       -0.3980   -0.9250    0.0270 H         1 PIP1        0.0000
     13 C13         1.6740    2.1640   -1.2520 C.3       1 PIP1        0.0000
     14 H13A        2.0230    1.6570   -2.1790 H         1 PIP1        0.0000
     15 H13B        2.1220    3.1830   -1.2370 H         1 PIP1        0.0000
     16 C14         0.1410    2.2760   -1.2770 C.3       1 PIP1        0.0000
     17 H14A       -0.1820    2.8070   -2.2020 H         1 PIP1        0.0000
     18 H14B       -0.2020    2.8830   -0.4080 H         1 PIP1        0.0000
     19 C15        -0.5150    0.8870   -1.2220 C.3       1 PIP1        0.0000
     20 H15A       -1.6220    0.9980   -1.1850 H         1 PIP1        0.0000
     21 H15B       -0.2650    0.3230   -2.1480 H         1 PIP1        0.0000
@<TRIPOS>BOND
     1   17   16 1 
     2   14   13 1 
     3   21   19 1 
     4   16   13 1 
     5   16   19 1 
     6   16   18 1 
     7   13   15 1 
     8   13    7 1 
     9   19   20 1 
    10   19   10 1 
    11    6    5 1 
    12    8    7 1 
    13    7    5 1 
    14    7    9 1 
    15    5   10 1 
    16    5    1 1 
    17   10   12 1 
    18   10   11 1 
    19    2    1 1 
    20    3    1 1 
    21    1    4 1 
