@<TRIPOS>MOLECULE
C:\Users\Praveer\PycharmProjects\pdb_to_mol2_converter\data\pdb\pip3.pdb
   22    22     0     0     0
SMALL
GASTEIGER

@<TRIPOS>ATOM
      1 C1          2.1930    3.5760   -1.2610 C.3       1 PIP1        0.0000
      2 H1A         1.8290    4.0270   -2.2090 H         1 PIP1        0.0000
      3 H1B         3.2970    3.4390   -1.2690 H         1 PIP1        0.0000
      4 H1C         1.8470    4.1380   -0.3670 H         1 PIP1        0.0000
      5 N1          1.5880    2.2030   -1.1740 N.4       1 PIP1        0.0000
      6 HNA         1.8860    1.6330   -2.0030 H         1 PIP1        0.0000
      7 C12         0.0750    2.2430   -1.2760 C.3       1 PIP1        0.0000
      8 H12A       -0.1480    2.8210   -2.1870 H         1 PIP1        0.0000
      9 H12B       -0.2660    2.7890   -0.3840 H         1 PIP1        0.0000
     10 C16         2.0620    1.4540    0.0450 C.3       1 PIP1        0.0000
     11 H16A        1.6920    2.0300    0.9090 H         1 PIP1        0.0000
     12 H16B        3.1630    1.4880    0.0110 H         1 PIP1        0.0000
     13 C13        -0.5000    0.8150   -1.3500 C.3       1 PIP1        0.0000
     14 H13        -1.6140    0.8570   -1.3490 H         1 PIP1        0.0000
     15 O3         -0.0750    0.1530   -2.5380 O.3       1 PIP1        0.0000
     16 HO3        -0.5880   -0.6610   -2.6160 H         1 PIP1        0.0000
     17 C14        -0.0160    0.0060   -0.1270 C.3       1 PIP1        0.0000
     18 H14A       -0.3690   -1.0470   -0.2060 H         1 PIP1        0.0000
     19 H14B       -0.4710    0.4360    0.7930 H         1 PIP1        0.0000
     20 C15         1.5220    0.0190    0.0150 C.3       1 PIP1        0.0000
     21 H15A        1.8160   -0.5130    0.9470 H         1 PIP1        0.0000
     22 H15B        1.9720   -0.5340   -0.8410 H         1 PIP1        0.0000
@<TRIPOS>BOND
     1   16   15 1 
     2   15   13 1 
     3    2    1 1 
     4    8    7 1 
     5    6    5 1 
     6   13   14 1 
     7   13    7 1 
     8   13   17 1 
     9    7    5 1 
    10    7    9 1 
    11    3    1 1 
    12    1    5 1 
    13    1    4 1 
    14    5   10 1 
    15   22   20 1 
    16   18   17 1 
    17   17   20 1 
    18   17   19 1 
    19   12   10 1 
    20   20   10 1 
    21   20   21 1 
    22   10   11 1 
