@<TRIPOS>MOLECULE
C:\Users\Praveer\PycharmProjects\pdb_to_mol2_converter\data\pdb\piub.pdb
   22    23     0     0     0
SMALL
GASTEIGER

@<TRIPOS>ATOM
      1 C1         -0.0260    0.0200    0.0000 C.2       1 PIU1        0.0000
      2 N2          1.3460   -0.0720    0.0000 N.pl3     1 PIU1        0.0000
      3 C3          2.0830    1.0890   -0.0000 C.2       1 PIU1        0.0000
      4 C4          1.4820    2.3210   -0.0000 C.2       1 PIU1        0.0000
      5 C5          0.0720    2.4400   -0.0000 C.3       1 PIU1        0.0000
      6 C6         -0.6660    1.2310   -0.0000 C.2       1 PIU1        0.0000
      7 C7         -0.6160    3.7960   -0.0000 C.ar      1 PIU1        0.0000
      8 C8          0.1320    5.0000   -0.0000 C.ar      1 PIU1        0.0000
      9 C12        -2.0300    3.9030   -0.0000 C.ar      1 PIU1        0.0000
     10 C11        -2.6640    5.1550   -0.0000 C.ar      1 PIU1        0.0000
     11 C10        -1.8990    6.3250   -0.0000 C.ar      1 PIU1        0.0000
     12 C9         -0.5040    6.2510   -0.0000 C.ar      1 PIU1        0.0000
     13 H2          1.8050   -0.9770    0.0000 H         1 PIU1        0.0000
     14 H1         -0.6080   -0.9100    0.0000 H         1 PIU1        0.0000
     15 H3          3.1760    1.0100   -0.0000 H         1 PIU1        0.0000
     16 H4          2.0970    3.2220   -0.0000 H         1 PIU1        0.0000
     17 H6         -1.7550    1.2670   -0.0000 H         1 PIU1        0.0000
     18 H8          1.2120    4.9920   -0.0000 H         1 PIU1        0.0000
     19 H12        -2.6610    3.0270   -0.0000 H         1 PIU1        0.0000
     20 H11        -3.7430    5.2170   -0.0000 H         1 PIU1        0.0000
     21 H10        -2.3890    7.2900   -0.0000 H         1 PIU1        0.0000
     22 H9          0.0830    7.1590   -0.0000 H         1 PIU1        0.0000
@<TRIPOS>BOND
     1    1    2 1 
     2    1    6 2 
     3    1   14 1 
     4    2    3 1 
     5    2   13 1 
     6    3    4 2 
     7    3   15 1 
     8    4    5 1 
     9    4   16 1 
    10    5    6 1 
    11    5    7 1 
    12    6   17 1 
    13    7    8 ar
    14    7    9 ar
    15    8   12 ar
    16    8   18 1 
    17    9   10 ar
    18    9   19 1 
    19   10   11 ar
    20   10   20 1 
    21   11   12 ar
    22   11   21 1 
    23   12   22 1 
