@<TRIPOS>MOLECULE
C:\Users\Praveer\PycharmProjects\pdb_to_mol2_converter\data\pdb\piuf.pdb
   22    23     0     0     0
SMALL
GASTEIGER

@<TRIPOS>ATOM
      1 C1         -0.0630    0.0380    0.0000 C.2       1 PIU1        0.0000
      2 N2          1.3040   -0.0950    0.0000 N.pl3     1 PIU1        0.0000
      3 C3          2.0750    1.0410   -0.0000 C.2       1 PIU1        0.0000
      4 C4          1.5130    2.2900   -0.0000 C.2       1 PIU1        0.0000
      5 C5          0.1050    2.4630   -0.0000 C.3       1 PIU1        0.0000
      6 C6         -0.6650    1.2700   -0.0000 C.2       1 PIU1        0.0000
      7 C7         -0.5600    3.8430   -0.0000 C.ar      1 PIU1        0.0000
      8 C8          0.1620    5.0720   -0.0000 C.ar      1 PIU1        0.0000
      9 C9         -0.4740    6.3080   -0.0000 C.ar      1 PIU1        0.0000
     10 C10        -1.8690    6.3660   -0.0000 C.ar      1 PIU1        0.0000
     11 C11        -2.6160    5.1880   -0.0000 C.ar      1 PIU1        0.0000
     12 C12        -1.9760    3.9420   -0.0000 C.ar      1 PIU1        0.0000
     13 H1         -0.6720   -0.8740    0.0000 H         1 PIU1        0.0000
     14 H2          1.7370   -1.0140    0.0000 H         1 PIU1        0.0000
     15 H3          3.1660    0.9290   -0.0000 H         1 PIU1        0.0000
     16 H4          2.1650    3.1640   -0.0000 H         1 PIU1        0.0000
     17 H6         -1.7540    1.3310   -0.0000 H         1 PIU1        0.0000
     18 F8          1.5200    5.1170   -0.0000 F         1 PIU1        0.0000
     19 H9          0.1080    7.2200   -0.0000 H         1 PIU1        0.0000
     20 H10        -2.3720    7.3240   -0.0000 H         1 PIU1        0.0000
     21 H11        -3.6970    5.2410   -0.0000 H         1 PIU1        0.0000
     22 H12        -2.6070    3.0660   -0.0000 H         1 PIU1        0.0000
@<TRIPOS>BOND
     1    1    2 1 
     2    1    6 2 
     3    1   13 1 
     4    2    3 1 
     5    2   14 1 
     6    3    4 2 
     7    3   15 1 
     8    4    5 1 
     9    4   16 1 
    10    5    6 1 
    11    5    7 1 
    12    6   17 1 
    13    7    8 ar
    14    7   12 ar
    15    8    9 ar
    16    8   18 1 
    17    9   10 ar
    18    9   19 1 
    19   10   11 ar
    20   10   20 1 
    21   11   12 ar
    22   11   21 1 
    23   12   22 1 
