@<TRIPOS>MOLECULE
C:\Users\Praveer\PycharmProjects\pdb_to_mol2_converter\data\pdb\pium.pdb
   12    12     0     0     0
SMALL
GASTEIGER

@<TRIPOS>ATOM
      1 C1          1.3890   -0.0550    0.0000 C.2       1 PIU1        0.0000
      2 C5         -0.6420    1.1400    0.0000 C.2       1 PIU1        0.0000
      3 H1          1.9180   -1.0150    0.0000 H         1 PIU1        0.0000
      4 H5         -1.7380    1.1350    0.0000 H         1 PIU1        0.0000
      5 C2          2.0970    1.1220   -0.0000 C.2       1 PIU1        0.0000
      6 C4          0.0430    2.3290   -0.0000 C.2       1 PIU1        0.0000
      7 H2          3.1900    1.1040   -0.0000 H         1 PIU1        0.0000
      8 H4         -0.5030    3.2770   -0.0000 H         1 PIU1        0.0000
      9 C3          1.4210    2.3220   -0.0000 C.3       1 PIU1        0.0000
     10 H3          1.9770    3.2670   -0.0000 H         1 PIU1        0.0000
     11 N6          0.0140   -0.0690    0.0000 N.pl3     1 PIU1        0.0000
     12 H6         -0.5000   -0.9430    0.0000 H         1 PIU1        0.0000
@<TRIPOS>BOND
     1    1    3 1 
     2    1    5 2 
     3    1   11 1 
     4    2    4 1 
     5    2    6 2 
     6    2   11 1 
     7    5    7 1 
     8    5    9 1 
     9    6    8 1 
    10    6    9 1 
    11    9   10 1 
    12   11   12 1 
