@<TRIPOS>MOLECULE
C:\Users\Praveer\PycharmProjects\pdb_to_mol2_converter\data\pdb\plpa.pdb
  114   113     0     0     0
SMALL
GASTEIGER

@<TRIPOS>ATOM
      1 P           1.6900    0.0680   -0.0720 P.3       1 PLP1        0.0000
      2 O13         1.9890   -0.2490   -1.4780 O.2       1 PLP1        0.0000
      3 O14         2.3990   -0.6630    0.9880 O.3       1 PLP1        0.0000
      4 O12         2.2040    1.5420    0.0940 O.3       1 PLP1        0.0000
      5 H12         3.1610    1.4860    0.0220 H         1 PLP1        0.0000
      6 O11         0.1350    0.1440    0.1880 O.3       1 PLP1        0.0000
      7 C1         -0.7790    0.5890   -0.8180 C.3       1 PLP1        0.0000
      8 HA         -1.4140   -0.2650   -1.1470 H         1 PLP1        0.0000
      9 HB         -0.2650    0.9950   -1.7250 H         1 PLP1        0.0000
     10 C2         -1.6960    1.7150   -0.2700 C.3       1 PLP1        0.0000
     11 HS         -2.4160    1.2660    0.4570 H         1 PLP1        0.0000
     12 O21        -2.3660    2.3580   -1.3720 O.3       1 PLP1        0.0000
     13 C21        -3.3970    1.6900   -1.8550 C.2       1 PLP1        0.0000
     14 O22        -3.8940    0.6870   -1.3790 O.2       1 PLP1        0.0000
     15 C22        -3.8750    2.3670   -3.1430 C.3       1 PLP1        0.0000
     16 H2R        -3.9080    1.5770   -3.9220 H         1 PLP1        0.0000
     17 H2S        -3.1360    3.1350   -3.4500 H         1 PLP1        0.0000
     18 C3         -0.8830    2.7930    0.5050 C.3       1 PLP1        0.0000
     19 HX         -0.1300    3.2030   -0.2050 H         1 PLP1        0.0000
     20 HY         -0.3080    2.3090    1.3280 H         1 PLP1        0.0000
     21 O31        -1.7150    3.8790    0.9840 O.3       1 PLP1        0.0000
     22 C31        -2.3690    3.6180    2.1090 C.2       1 PLP1        0.0000
     23 O32        -2.3170    2.5850    2.7470 O.2       1 PLP1        0.0000
     24 C32        -3.2200    4.8310    2.4880 C.3       1 PLP1        0.0000
     25 H2X        -4.0250    4.9240    1.7300 H         1 PLP1        0.0000
     26 H2Y        -2.5800    5.7350    2.4430 H         1 PLP1        0.0000
     27 C23        -5.2780    2.9980   -2.9970 C.3       1 PLP1        0.0000
     28 H3R        -6.0100    2.2400   -2.6380 H         1 PLP1        0.0000
     29 H3S        -5.6130    3.3360   -4.0050 H         1 PLP1        0.0000
     30 C24        -5.2930    4.2130   -2.0590 C.3       1 PLP1        0.0000
     31 H4R        -4.5110    4.9390   -2.3770 H         1 PLP1        0.0000
     32 H4S        -5.0420    3.8800   -1.0270 H         1 PLP1        0.0000
     33 C25        -6.6520    4.9280   -2.0340 C.3       1 PLP1        0.0000
     34 H5R        -7.4450    4.1760   -1.8240 H         1 PLP1        0.0000
     35 H5S        -6.8590    5.3650   -3.0360 H         1 PLP1        0.0000
     36 C26        -6.7100    6.0360   -0.9720 C.3       1 PLP1        0.0000
     37 H6R        -5.8620    6.7390   -1.1400 H         1 PLP1        0.0000
     38 H6S        -6.5640    5.5780    0.0320 H         1 PLP1        0.0000
     39 C27        -8.0190    6.8490   -0.9700 C.3       1 PLP1        0.0000
     40 H7R        -8.0570    7.4570   -1.9020 H         1 PLP1        0.0000
     41 H7S        -7.9930    7.5600   -0.1120 H         1 PLP1        0.0000
     42 C28        -9.3190    6.0190   -0.8870 C.3       1 PLP1        0.0000
     43 H8R        -9.4150    5.4130   -1.8150 H         1 PLP1        0.0000
     44 H8S       -10.1710    6.7340   -0.9000 H         1 PLP1        0.0000
     45 C29        -9.3630    5.1130    0.3200 C.2       1 PLP1        0.0000
     46 H9R        -8.6790    4.2520    0.2610 H         1 PLP1        0.0000
     47 C210      -10.1180    5.2530    1.4270 C.2       1 PLP1        0.0000
     48 H10R      -10.0270    4.4900    2.2170 H         1 PLP1        0.0000
     49 C211      -11.1070    6.3540    1.7340 C.3       1 PLP1        0.0000
     50 H11R      -12.0780    5.8930    2.0200 H         1 PLP1        0.0000
     51 H11S      -11.3250    6.9610    0.8290 H         1 PLP1        0.0000
     52 C212      -10.6200    7.2250    2.8690 C.2       1 PLP1        0.0000
     53 H12R      -10.1500    6.6880    3.7090 H         1 PLP1        0.0000
     54 C213      -10.6910    8.5680    2.9280 C.2       1 PLP1        0.0000
     55 H13R      -10.2850    9.0830    3.8120 H         1 PLP1        0.0000
     56 C214      -11.2930    9.4780    1.8850 C.3       1 PLP1        0.0000
     57 H14R      -11.7700   10.3550    2.3770 H         1 PLP1        0.0000
     58 H14S      -12.1020    8.9600    1.3210 H         1 PLP1        0.0000
     59 C215      -10.2570    9.9900    0.8640 C.3       1 PLP1        0.0000
     60 H15R      -10.7910   10.6070    0.1060 H         1 PLP1        0.0000
     61 H15S       -9.8060    9.1250    0.3300 H         1 PLP1        0.0000
     62 C216       -9.1470   10.8500    1.4910 C.3       1 PLP1        0.0000
     63 H16R       -8.5230   10.2130    2.1560 H         1 PLP1        0.0000
     64 H16S       -9.6210   11.6360    2.1210 H         1 PLP1        0.0000
     65 C217       -8.2360   11.5340    0.4590 C.3       1 PLP1        0.0000
     66 H17R       -7.5030   12.1690    1.0080 H         1 PLP1        0.0000
     67 H17S       -8.8560   12.2130   -0.1690 H         1 PLP1        0.0000
     68 C218       -7.4710   10.5680   -0.4510 C.3       1 PLP1        0.0000
     69 H18R       -8.1740    9.9840   -1.0820 H         1 PLP1        0.0000
     70 H18S       -6.8700    9.8580    0.1550 H         1 PLP1        0.0000
     71 H18T       -6.7850   11.1280   -1.1220 H         1 PLP1        0.0000
     72 C33        -3.8340    4.6800    3.8980 C.3       1 PLP1        0.0000
     73 H3X        -3.0190    4.6280    4.6550 H         1 PLP1        0.0000
     74 H3Y        -4.4030    3.7230    3.9590 H         1 PLP1        0.0000
     75 C34        -4.7850    5.8290    4.2570 C.3       1 PLP1        0.0000
     76 H4X        -5.6060    5.8680    3.5060 H         1 PLP1        0.0000
     77 H4Y        -4.2320    6.7940    4.2060 H         1 PLP1        0.0000
     78 C35        -5.3980    5.6750    5.6560 C.3       1 PLP1        0.0000
     79 H5X        -4.5820    5.6700    6.4140 H         1 PLP1        0.0000
     80 H5Y        -5.9230    4.6950    5.7190 H         1 PLP1        0.0000
     81 C36        -6.3890    6.7990    5.9880 C.3       1 PLP1        0.0000
     82 H6X        -7.2050    6.7990    5.2310 H         1 PLP1        0.0000
     83 H6Y        -5.8630    7.7780    5.9180 H         1 PLP1        0.0000
     84 C37        -7.0020    6.6600    7.3880 C.3       1 PLP1        0.0000
     85 H7X        -6.1850    6.6600    8.1440 H         1 PLP1        0.0000
     86 H7Y        -7.5320    5.6840    7.4620 H         1 PLP1        0.0000
     87 C38        -7.9840    7.7950    7.7120 C.3       1 PLP1        0.0000
     88 H8X        -8.8080    7.7900    6.9630 H         1 PLP1        0.0000
     89 H8Y        -7.4520    8.7690    7.6210 H         1 PLP1        0.0000
     90 C39        -8.5840    7.6860    9.1200 C.3       1 PLP1        0.0000
     91 H9X        -7.7600    7.6870    9.8680 H         1 PLP1        0.0000
     92 H9Y        -9.1270    6.7190    9.2150 H         1 PLP1        0.0000
     93 C310       -9.5470    8.8390    9.4360 C.3       1 PLP1        0.0000
     94 H10X      -10.3760    8.8360    8.6930 H         1 PLP1        0.0000
     95 H10Y       -9.0030    9.8050    9.3300 H         1 PLP1        0.0000
     96 C311      -10.1390    8.7530   10.8490 C.3       1 PLP1        0.0000
     97 H11X       -9.3090    8.7540   11.5920 H         1 PLP1        0.0000
     98 H11Y      -10.6900    7.7920   10.9580 H         1 PLP1        0.0000
     99 C312      -11.0900    9.9170   11.1590 C.3       1 PLP1        0.0000
    100 H12X      -11.9210    9.9160   10.4190 H         1 PLP1        0.0000
    101 H12Y      -10.5380   10.8770   11.0460 H         1 PLP1        0.0000
    102 C313      -11.6780    9.8430   12.5750 C.3       1 PLP1        0.0000
    103 H13X      -10.8460    9.8430   13.3150 H         1 PLP1        0.0000
    104 H13Y      -12.2330    8.8850   12.6900 H         1 PLP1        0.0000
    105 C314      -12.6230   11.0120   12.8820 C.3       1 PLP1        0.0000
    106 H14X      -13.4560   11.0130   12.1430 H         1 PLP1        0.0000
    107 H14Y      -12.0680   11.9700   12.7660 H         1 PLP1        0.0000
    108 C315      -13.2110   10.9440   14.2970 C.3       1 PLP1        0.0000
    109 H15X      -12.3750   10.9380   15.0330 H         1 PLP1        0.0000
    110 H15Y      -13.7620    9.9820   14.4110 H         1 PLP1        0.0000
    111 C316      -14.1550   12.1060   14.6180 C.3       1 PLP1        0.0000
    112 H16X      -15.0120   12.1170   13.9100 H         1 PLP1        0.0000
    113 H16Y      -13.6190   13.0760   14.5350 H         1 PLP1        0.0000
    114 H16Z      -14.5530   12.0100   15.6510 H         1 PLP1        0.0000
@<TRIPOS>BOND
     1   29   27 1 
     2   16   15 1 
     3   17   15 1 
     4   15   27 1 
     5   15   13 1 
     6   35   33 1 
     7   27   28 1 
     8   27   30 1 
     9   31   30 1 
    10   30   33 1 
    11   30   32 1 
    12   33   34 1 
    13   33   36 1 
    14   40   39 1 
    15   13   14 2 
    16   13   12 1 
    17   43   42 1 
    18    9    7 1 
    19    2    1 2 
    20   12   10 1 
    21    8    7 1 
    22   37   36 1 
    23   71   68 1 
    24   69   68 1 
    25   36   39 1 
    26   36   38 1 
    27   39   42 1 
    28   39   41 1 
    29   44   42 1 
    30   42   45 1 
    31    7   10 1 
    32    7    6 1 
    33   68   70 1 
    34   68   65 1 
    35   10   11 1 
    36   10   18 1 
    37   19   18 1 
    38   67   65 1 
    39    1    4 1 
    40    1    6 1 
    41    1    3 1 
    42    5    4 1 
    43   60   59 1 
    44   46   45 1 
    45   45   47 2 
    46   61   59 1 
    47   65   66 1 
    48   65   62 1 
    49   18   21 1 
    50   18   20 1 
    51   51   49 1 
    52   59   62 1 
    53   59   56 1 
    54   21   22 1 
    55   58   56 1 
    56   47   49 1 
    57   47   48 1 
    58   62   64 1 
    59   62   63 1 
    60   25   24 1 
    61   49   50 1 
    62   49   52 1 
    63   56   57 1 
    64   56   54 1 
    65   22   24 1 
    66   22   23 2 
    67   26   24 1 
    68   24   72 1 
    69   52   54 2 
    70   52   53 1 
    71   54   55 1 
    72   76   75 1 
    73   72   74 1 
    74   72   75 1 
    75   72   73 1 
    76   77   75 1 
    77   75   78 1 
    78   82   81 1 
    79   78   80 1 
    80   78   81 1 
    81   78   79 1 
    82   83   81 1 
    83   81   84 1 
    84   88   87 1 
    85   84   86 1 
    86   84   87 1 
    87   84   85 1 
    88   89   87 1 
    89   87   90 1 
    90   94   93 1 
    91   90   92 1 
    92   90   93 1 
    93   90   91 1 
    94   95   93 1 
    95   93   96 1 
    96  100   99 1 
    97   96   98 1 
    98   96   99 1 
    99   96   97 1 
   100  101   99 1 
   101   99  102 1 
   102  106  105 1 
   103  102  104 1 
   104  102  105 1 
   105  102  103 1 
   106  107  105 1 
   107  105  108 1 
   108  112  111 1 
   109  108  110 1 
   110  108  111 1 
   111  108  109 1 
   112  113  111 1 
   113  111  114 1 
