@<TRIPOS>MOLECULE
C:\Users\Praveer\PycharmProjects\pdb_to_mol2_converter\data\pdb\plpc.pdb
  132   131     0     0     0
SMALL
GASTEIGER

@<TRIPOS>ATOM
      1 N           1.4510   -0.0220   -0.0280 N.4       1 PLP1        0.0000
      2 C13        -0.0450   -0.0130   -0.0080 C.3       1 PLP1        0.0000
      3 H13A       -0.4400   -1.0190    0.0350 H         1 PLP1        0.0000
      4 H13B       -0.4450    0.4830   -0.8810 H         1 PLP1        0.0000
      5 H13C       -0.3930    0.5230    0.8700 H         1 PLP1        0.0000
      6 C14         1.9580   -0.7710   -1.2240 C.3       1 PLP1        0.0000
      7 H14A        1.6320   -0.3120   -2.1480 H         1 PLP1        0.0000
      8 H14B        1.6180   -1.7990   -1.2100 H         1 PLP1        0.0000
      9 H14C        3.0450   -0.7840   -1.2160 H         1 PLP1        0.0000
     10 C15         1.9680   -0.7090    1.2060 C.3       1 PLP1        0.0000
     11 H15A        1.6400   -1.7270    1.3010 H         1 PLP1        0.0000
     12 H15B        1.6970   -0.1530    2.1070 H         1 PLP1        0.0000
     13 H15C        3.0610   -0.6730    1.2240 H         1 PLP1        0.0000
     14 C12         1.9990    1.3980   -0.0450 C.3       1 PLP1        0.0000
     15 H12A        1.7680    1.9030   -0.9700 H         1 PLP1        0.0000
     16 H12B        3.0930    1.3350    0.0020 H         1 PLP1        0.0000
     17 C11         1.6180    2.3140    1.1380 C.3       1 PLP1        0.0000
     18 H11A        1.0300    1.7910    1.9270 H         1 PLP1        0.0000
     19 H11B        0.9790    3.1440    0.7620 H         1 PLP1        0.0000
     20 P           3.8250    1.8880    2.4250 P.3       1 PLP1        0.0000
     21 O13         3.0540    1.1310    3.4350 O.3       1 PLP1        0.0000
     22 O14         4.4980    1.0910    1.3740 O.2       1 PLP1        0.0000
     23 O12         2.8110    2.8660    1.6860 O.3       1 PLP1        0.0000
     24 O11         4.8350    2.8850    3.1140 O.3       1 PLP1        0.0000
     25 C1          4.4270    3.8200    4.1140 C.3       1 PLP1        0.0000
     26 HA          4.9660    3.5900    5.0600 H         1 PLP1        0.0000
     27 HB          3.3330    3.7730    4.3360 H         1 PLP1        0.0000
     28 C2          4.7690    5.2730    3.6870 C.3       1 PLP1        0.0000
     29 HS          5.8800    5.3740    3.6450 H         1 PLP1        0.0000
     30 O21         4.1720    6.1950    4.6200 O.3       1 PLP1        0.0000
     31 C21         4.8480    6.3630    5.7430 C.2       1 PLP1        0.0000
     32 O22         5.9470    5.9030    5.9950 O.2       1 PLP1        0.0000
     33 C22         4.0210    7.2100    6.7120 C.3       1 PLP1        0.0000
     34 H2R         3.9420    6.6270    7.6540 H         1 PLP1        0.0000
     35 H2S         3.0020    7.3580    6.3010 H         1 PLP1        0.0000
     36 C3          4.2280    5.5990    2.2660 C.3       1 PLP1        0.0000
     37 HX          3.1240    5.4590    2.3030 H         1 PLP1        0.0000
     38 HY          4.6170    4.8510    1.5380 H         1 PLP1        0.0000
     39 O31         4.5130    6.9600    1.8620 O.3       1 PLP1        0.0000
     40 C31         5.7220    7.1420    1.3450 C.2       1 PLP1        0.0000
     41 O32         6.5630    6.2830    1.1730 O.2       1 PLP1        0.0000
     42 C32         5.8950    8.6210    0.9940 C.3       1 PLP1        0.0000
     43 H2X         5.8880    9.1950    1.9430 H         1 PLP1        0.0000
     44 H2Y         5.0280    8.9380    0.3800 H         1 PLP1        0.0000
     45 C23         4.6830    8.5730    7.0110 C.3       1 PLP1        0.0000
     46 H3R         5.7210    8.4270    7.3870 H         1 PLP1        0.0000
     47 H3S         4.1040    9.0740    7.8210 H         1 PLP1        0.0000
     48 C24         4.7000    9.5040    5.7910 C.3       1 PLP1        0.0000
     49 H4R         3.6710    9.5930    5.3770 H         1 PLP1        0.0000
     50 H4S         5.3450    9.0610    4.9980 H         1 PLP1        0.0000
     51 C25         5.2230   10.9060    6.1320 C.3       1 PLP1        0.0000
     52 H5R         6.2140   10.8020    6.6280 H         1 PLP1        0.0000
     53 H5S         4.5320   11.3900    6.8580 H         1 PLP1        0.0000
     54 C26         5.3670   11.8000    4.8920 C.3       1 PLP1        0.0000
     55 H6R         4.3940   11.8260    4.3510 H         1 PLP1        0.0000
     56 H6S         6.1130   11.3410    4.2040 H         1 PLP1        0.0000
     57 C27         5.7890   13.2490    5.2020 C.3       1 PLP1        0.0000
     58 H7R         4.9440   13.7560    5.7210 H         1 PLP1        0.0000
     59 H7S         5.9550   13.7840    4.2390 H         1 PLP1        0.0000
     60 C28         7.0480   13.4020    6.0820 C.3       1 PLP1        0.0000
     61 H8R         6.8340   12.9880    7.0920 H         1 PLP1        0.0000
     62 H8S         7.2200   14.4910    6.2290 H         1 PLP1        0.0000
     63 C29         8.2590   12.7150    5.4950 C.2       1 PLP1        0.0000
     64 H9R         8.2240   11.6160    5.5510 H         1 PLP1        0.0000
     65 C210        9.3320   13.2920    4.9190 C.2       1 PLP1        0.0000
     66 H10R       10.1340   12.6370    4.5440 H         1 PLP1        0.0000
     67 C211        9.5860   14.7680    4.7210 C.3       1 PLP1        0.0000
     68 H11R       10.5930   15.0140    5.1240 H         1 PLP1        0.0000
     69 H11S        8.8730   15.3820    5.3120 H         1 PLP1        0.0000
     70 C212        9.5370   15.1410    3.2560 C.2       1 PLP1        0.0000
     71 H12R       10.0190   14.4250    2.5720 H         1 PLP1        0.0000
     72 C213        8.9530   16.2340    2.7310 C.2       1 PLP1        0.0000
     73 H13R        8.9760   16.3760    1.6390 H         1 PLP1        0.0000
     74 C214        8.2460   17.3270    3.4960 C.3       1 PLP1        0.0000
     75 H14R        8.4140   18.3080    2.9980 H         1 PLP1        0.0000
     76 H14S        8.6580   17.4260    4.5260 H         1 PLP1        0.0000
     77 C215        6.7280   17.0870    3.6120 C.3       1 PLP1        0.0000
     78 H15R        6.2920   17.9070    4.2260 H         1 PLP1        0.0000
     79 H15S        6.5470   16.1330    4.1550 H         1 PLP1        0.0000
     80 C216        6.0000   17.0610    2.2570 C.3       1 PLP1        0.0000
     81 H16R        6.3330   16.1710    1.6780 H         1 PLP1        0.0000
     82 H16S        6.2910   17.9670    1.6810 H         1 PLP1        0.0000
     83 C217        4.4670   17.0300    2.3770 C.3       1 PLP1        0.0000
     84 H17R        4.0370   17.0620    1.3500 H         1 PLP1        0.0000
     85 H17S        4.1320   17.9520    2.9050 H         1 PLP1        0.0000
     86 C218        3.9110   15.8040    3.1090 C.3       1 PLP1        0.0000
     87 H18R        4.2400   15.7970    4.1700 H         1 PLP1        0.0000
     88 H18S        4.2670   14.8690    2.6250 H         1 PLP1        0.0000
     89 H18T        2.8000   15.8100    3.0890 H         1 PLP1        0.0000
     90 C33         7.2130    8.8800    0.2290 C.3       1 PLP1        0.0000
     91 H3X         7.1970    8.3310   -0.7400 H         1 PLP1        0.0000
     92 H3Y         8.0720    8.4860    0.8210 H         1 PLP1        0.0000
     93 C34         7.4510   10.3710   -0.0410 C.3       1 PLP1        0.0000
     94 H4X         7.4800   10.9150    0.9300 H         1 PLP1        0.0000
     95 H4Y         6.6000   10.7780   -0.6310 H         1 PLP1        0.0000
     96 C35         8.7600   10.6330   -0.8000 C.3       1 PLP1        0.0000
     97 H5X         8.7200   10.1150   -1.7840 H         1 PLP1        0.0000
     98 H5Y         9.6080   10.1990   -0.2250 H         1 PLP1        0.0000
     99 C36         9.0210   12.1290   -1.0270 C.3       1 PLP1        0.0000
    100 H6X         9.0640   12.6440   -0.0410 H         1 PLP1        0.0000
    101 H6Y         8.1700   12.5630   -1.5970 H         1 PLP1        0.0000
    102 C37        10.3250   12.3990   -1.7920 C.3       1 PLP1        0.0000
    103 H7X        10.2810   11.8830   -2.7770 H         1 PLP1        0.0000
    104 H7Y        11.1800   11.9690   -1.2240 H         1 PLP1        0.0000
    105 C38        10.5730   13.8980   -2.0210 C.3       1 PLP1        0.0000
    106 H8X        10.6280   14.4120   -1.0350 H         1 PLP1        0.0000
    107 H8Y         9.7090   14.3250   -2.5770 H         1 PLP1        0.0000
    108 C39        11.8610   14.1810   -2.8080 C.3       1 PLP1        0.0000
    109 H9X        11.8070   13.6610   -3.7910 H         1 PLP1        0.0000
    110 H9Y        12.7300   13.7640   -2.2520 H         1 PLP1        0.0000
    111 C310       12.0880   15.6810   -3.0480 C.3       1 PLP1        0.0000
    112 H10X       12.1490   16.2020   -2.0660 H         1 PLP1        0.0000
    113 H10Y       11.2130   16.0960   -3.5960 H         1 PLP1        0.0000
    114 C311       13.3640   15.9730   -3.8510 C.3       1 PLP1        0.0000
    115 H11X       13.3040   15.4500   -4.8320 H         1 PLP1        0.0000
    116 H11Y       14.2420   15.5640   -3.3040 H         1 PLP1        0.0000
    117 C312       13.5750   17.4740   -4.0960 C.3       1 PLP1        0.0000
    118 H12X       13.6390   17.9970   -3.1160 H         1 PLP1        0.0000
    119 H12Y       12.6930   17.8810   -4.6400 H         1 PLP1        0.0000
    120 C313       14.8440   17.7750   -4.9070 C.3       1 PLP1        0.0000
    121 H13X       14.7820   17.2520   -5.8880 H         1 PLP1        0.0000
    122 H13Y       15.7290   17.3730   -4.3650 H         1 PLP1        0.0000
    123 C314       15.0450   19.2780   -5.1530 C.3       1 PLP1        0.0000
    124 H14X       15.1090   19.8020   -4.1730 H         1 PLP1        0.0000
    125 H14Y       14.1590   19.6800   -5.6940 H         1 PLP1        0.0000
    126 C315       16.3090   19.5840   -5.9670 C.3       1 PLP1        0.0000
    127 H15X       16.2440   19.0520   -6.9440 H         1 PLP1        0.0000
    128 H15Y       17.1930   19.1760   -5.4250 H         1 PLP1        0.0000
    129 C316       16.5210   21.0790   -6.2220 C.3       1 PLP1        0.0000
    130 H16X       16.6150   21.6280   -5.2600 H         1 PLP1        0.0000
    131 H16Y       15.6630   21.5030   -6.7850 H         1 PLP1        0.0000
    132 H16Z       17.4470   21.2470   -6.8130 H         1 PLP1        0.0000
@<TRIPOS>BOND
     1  127  126 1 
     2  132  129 1 
     3  131  129 1 
     4  129  126 1 
     5  129  130 1 
     6  126  128 1 
     7  126  123 1 
     8  121  120 1 
     9  125  123 1 
    10  123  120 1 
    11  123  124 1 
    12  120  122 1 
    13  120  117 1 
    14  115  114 1 
    15  119  117 1 
    16  117  114 1 
    17  117  118 1 
    18  114  116 1 
    19  114  111 1 
    20  109  108 1 
    21  113  111 1 
    22  111  108 1 
    23  111  112 1 
    24  108  110 1 
    25  108  105 1 
    26  103  102 1 
    27  107  105 1 
    28    7    6 1 
    29  105  102 1 
    30  105  106 1 
    31  102  104 1 
    32  102   99 1 
    33   97   96 1 
    34  101   99 1 
    35    6    9 1 
    36    6    8 1 
    37    6    1 1 
    38   99   96 1 
    39   99  100 1 
    40   15   14 1 
    41    4    2 1 
    42   96   98 1 
    43   96   93 1 
    44   91   90 1 
    45   95   93 1 
    46   14    1 1 
    47   14   16 1 
    48   14   17 1 
    49   93   90 1 
    50   93   94 1 
    51    1    2 1 
    52    1   10 1 
    53    2    3 1 
    54    2    5 1 
    55   90   92 1 
    56   90   42 1 
    57   44   42 1 
    58   19   17 1 
    59   42   40 1 
    60   42   43 1 
    61   17   23 1 
    62   17   18 1 
    63   41   40 2 
    64   10   13 1 
    65   10   11 1 
    66   10   12 1 
    67   40   39 1 
    68   84   83 1 
    69   22   20 2 
    70   38   36 1 
    71   73   72 1 
    72   81   80 1 
    73   82   80 1 
    74   23   20 1 
    75   39   36 1 
    76   80   83 1 
    77   80   77 1 
    78   36   37 1 
    79   36   28 1 
    80   83   85 1 
    81   83   86 1 
    82   20   24 1 
    83   20   21 1 
    84   71   70 1 
    85   88   86 1 
    86   72   70 2 
    87   72   74 1 
    88   75   74 1 
    89   89   86 1 
    90   86   87 1 
    91   24   25 1 
    92   70   67 1 
    93   74   77 1 
    94   74   76 1 
    95   77   79 1 
    96   77   78 1 
    97   29   28 1 
    98   28   25 1 
    99   28   30 1 
   100   25   27 1 
   101   25   26 1 
   102   56   54 1 
   103   59   57 1 
   104   55   54 1 
   105   66   65 1 
   106   30   31 1 
   107   67   65 1 
   108   67   68 1 
   109   67   69 1 
   110   54   57 1 
   111   54   51 1 
   112   65   63 2 
   113   50   48 1 
   114   57   58 1 
   115   57   60 1 
   116   49   48 1 
   117   63   64 1 
   118   63   60 1 
   119   31   32 2 
   120   31   33 1 
   121   48   51 1 
   122   48   45 1 
   123   60   62 1 
   124   60   61 1 
   125   51   52 1 
   126   51   53 1 
   127   35   33 1 
   128   33   45 1 
   129   33   34 1 
   130   45   46 1 
   131   45   47 1 
