@<TRIPOS>MOLECULE
C:\Users\Praveer\PycharmProjects\pdb_to_mol2_converter\data\pdb\plpe.pdb
  123   122     0     0     0
SMALL
GASTEIGER

@<TRIPOS>ATOM
      1 N           0.9760    0.3670   -0.4790 N.4       1 PLP1        0.0000
      2 HN1        -0.0020    0.2660   -0.1590 H         1 PLP1        0.0000
      3 HN2         1.4380   -0.5570   -0.5890 H         1 PLP1        0.0000
      4 HN3         0.9640    0.8290   -1.4400 H         1 PLP1        0.0000
      5 C12         1.8040    1.2780    0.3950 C.3       1 PLP1        0.0000
      6 H12A        1.8590    0.8260    1.4060 H         1 PLP1        0.0000
      7 H12B        1.2780    2.2560    0.4460 H         1 PLP1        0.0000
      8 C11         3.2250    1.4960   -0.1740 C.3       1 PLP1        0.0000
      9 H11A        3.7680    0.5340   -0.3300 H         1 PLP1        0.0000
     10 H11B        3.8180    2.0440    0.5910 H         1 PLP1        0.0000
     11 P           2.8380    1.6980   -2.7560 P.3       1 PLP1        0.0000
     12 O13         3.5180    0.3950   -2.8580 O.2       1 PLP1        0.0000
     13 O14         1.3560    1.6510   -2.7510 O.3       1 PLP1        0.0000
     14 O12         3.2170    2.3060   -1.3480 O.3       1 PLP1        0.0000
     15 O11         3.4100    2.7510   -3.7800 O.3       1 PLP1        0.0000
     16 C1          4.8130    2.8260   -4.0580 C.3       1 PLP1        0.0000
     17 HA          4.9790    2.6340   -5.1420 H         1 PLP1        0.0000
     18 HB          5.4100    2.0620   -3.5000 H         1 PLP1        0.0000
     19 C2          5.3930    4.2240   -3.7100 C.3       1 PLP1        0.0000
     20 HS          4.9330    4.9810   -4.3890 H         1 PLP1        0.0000
     21 O21         6.8250    4.1610   -3.8400 O.3       1 PLP1        0.0000
     22 C21         7.2780    4.3320   -5.0690 C.2       1 PLP1        0.0000
     23 O22         6.6240    4.6770   -6.0350 O.2       1 PLP1        0.0000
     24 C22         8.7620    3.9700   -5.1100 C.3       1 PLP1        0.0000
     25 H2R         8.8710    3.1850   -5.8880 H         1 PLP1        0.0000
     26 H2S         9.0700    3.5430   -4.1340 H         1 PLP1        0.0000
     27 C3          5.0490    4.6560   -2.2560 C.3       1 PLP1        0.0000
     28 HX          5.4180    3.8490   -1.5860 H         1 PLP1        0.0000
     29 HY          3.9420    4.6930   -2.1370 H         1 PLP1        0.0000
     30 O31         5.6960    5.8970   -1.8820 O.3       1 PLP1        0.0000
     31 C31         5.0130    7.0010   -2.1650 C.2       1 PLP1        0.0000
     32 O32         3.9080    7.0470   -2.6690 O.2       1 PLP1        0.0000
     33 C32         5.8420    8.2200   -1.7460 C.3       1 PLP1        0.0000
     34 H2X         6.7710    8.2180   -2.3520 H         1 PLP1        0.0000
     35 H2Y         6.1140    8.0990   -0.6780 H         1 PLP1        0.0000
     36 C23         9.6520    5.1790   -5.4700 C.3       1 PLP1        0.0000
     37 H3R         9.3050    5.6470   -6.4190 H         1 PLP1        0.0000
     38 H3S        10.6890    4.8080   -5.6430 H         1 PLP1        0.0000
     39 C24         9.6990    6.2320   -4.3550 C.3       1 PLP1        0.0000
     40 H4R         9.9640    5.7420   -3.3910 H         1 PLP1        0.0000
     41 H4S         8.6890    6.6850   -4.2360 H         1 PLP1        0.0000
     42 C25        10.7160    7.3450   -4.6440 C.3       1 PLP1        0.0000
     43 H5R        10.5220    7.7420   -5.6650 H         1 PLP1        0.0000
     44 H5S        11.7430    6.9170   -4.6360 H         1 PLP1        0.0000
     45 C26        10.6320    8.4950   -3.6290 C.3       1 PLP1        0.0000
     46 H6R        10.7490    8.0790   -2.6020 H         1 PLP1        0.0000
     47 H6S         9.6180    8.9490   -3.6860 H         1 PLP1        0.0000
     48 C27        11.6890    9.5980   -3.8290 C.3       1 PLP1        0.0000
     49 H7R        12.6880    9.1770   -3.5730 H         1 PLP1        0.0000
     50 H7S        11.4810   10.4210   -3.1080 H         1 PLP1        0.0000
     51 C28        11.7720   10.1930   -5.2510 C.3       1 PLP1        0.0000
     52 H8R        12.1280    9.4020   -5.9480 H         1 PLP1        0.0000
     53 H8S        12.5680   10.9700   -5.2400 H         1 PLP1        0.0000
     54 C29        10.4540   10.7450   -5.7380 C.2       1 PLP1        0.0000
     55 H9R         9.7070    9.9730   -5.9800 H         1 PLP1        0.0000
     56 C210       10.1080   12.0380   -5.8910 C.2       1 PLP1        0.0000
     57 H10R        9.0970   12.2640   -6.2640 H         1 PLP1        0.0000
     58 C211       10.9570   13.2560   -5.6120 C.3       1 PLP1        0.0000
     59 H11R       10.9580   13.9070   -6.5140 H         1 PLP1        0.0000
     60 H11S       12.0190   12.9760   -5.4490 H         1 PLP1        0.0000
     61 C212       10.4180   14.0400   -4.4370 C.2       1 PLP1        0.0000
     62 H12R        9.3220   14.1470   -4.4030 H         1 PLP1        0.0000
     63 C213       11.1460   14.5890   -3.4460 C.2       1 PLP1        0.0000
     64 H13R       10.6240   15.1180   -2.6340 H         1 PLP1        0.0000
     65 C214       12.6500   14.5580   -3.3210 C.3       1 PLP1        0.0000
     66 H14R       13.0100   15.4990   -2.8490 H         1 PLP1        0.0000
     67 H14S       13.1330   14.5070   -4.3230 H         1 PLP1        0.0000
     68 C215       13.1590   13.3640   -2.4880 C.3       1 PLP1        0.0000
     69 H15R       14.2720   13.3850   -2.4950 H         1 PLP1        0.0000
     70 H15S       12.8400   12.4140   -2.9720 H         1 PLP1        0.0000
     71 C216       12.6850   13.3880   -1.0250 C.3       1 PLP1        0.0000
     72 H16R       11.5840   13.2320   -0.9940 H         1 PLP1        0.0000
     73 H16S       12.8970   14.3960   -0.6010 H         1 PLP1        0.0000
     74 C217       13.3610   12.3320   -0.1370 C.3       1 PLP1        0.0000
     75 H17R       12.9950   12.4670    0.9070 H         1 PLP1        0.0000
     76 H17S       14.4590   12.5210   -0.1290 H         1 PLP1        0.0000
     77 C218       13.1050   10.8840   -0.5670 C.3       1 PLP1        0.0000
     78 H18R       13.5410   10.6890   -1.5690 H         1 PLP1        0.0000
     79 H18S       12.0130   10.6820   -0.6140 H         1 PLP1        0.0000
     80 H18T       13.5630   10.1760    0.1560 H         1 PLP1        0.0000
     81 C33         5.0800    9.5510   -1.9530 C.3       1 PLP1        0.0000
     82 H3X         4.1650    9.5580   -1.3180 H         1 PLP1        0.0000
     83 H3Y         4.7510    9.6290   -3.0140 H         1 PLP1        0.0000
     84 C34         5.9320   10.7850   -1.6140 C.3       1 PLP1        0.0000
     85 H4X         6.8460   10.7800   -2.2500 H         1 PLP1        0.0000
     86 H4Y         6.2580   10.7250   -0.5510 H         1 PLP1        0.0000
     87 C35         5.1790   12.1080   -1.8340 C.3       1 PLP1        0.0000
     88 H5X         4.2760   12.1230   -1.1840 H         1 PLP1        0.0000
     89 H5Y         4.8350   12.1580   -2.8910 H         1 PLP1        0.0000
     90 C36         6.0380   13.3470   -1.5290 C.3       1 PLP1        0.0000
     91 H6X         6.9390   13.3340   -2.1820 H         1 PLP1        0.0000
     92 H6Y         6.3850   13.2950   -0.4730 H         1 PLP1        0.0000
     93 C37         5.2830   14.6700   -1.7410 C.3       1 PLP1        0.0000
     94 H7X         4.3810   14.6800   -1.0900 H         1 PLP1        0.0000
     95 H7Y         4.9380   14.7280   -2.7980 H         1 PLP1        0.0000
     96 C38         6.1420   15.9040   -1.4240 C.3       1 PLP1        0.0000
     97 H8X         7.0390   15.9030   -2.0830 H         1 PLP1        0.0000
     98 H8Y         6.4970   15.8350   -0.3710 H         1 PLP1        0.0000
     99 C39         5.3880   17.2310   -1.6070 C.3       1 PLP1        0.0000
    100 H9X         4.4880   17.2300   -0.9520 H         1 PLP1        0.0000
    101 H9Y         5.0390   17.3110   -2.6610 H         1 PLP1        0.0000
    102 C310        6.2520   18.4550   -1.2680 C.3       1 PLP1        0.0000
    103 H10X        7.1470   18.4630   -1.9290 H         1 PLP1        0.0000
    104 H10Y        6.6080   18.3670   -0.2170 H         1 PLP1        0.0000
    105 C311        5.5000   19.7860   -1.4280 C.3       1 PLP1        0.0000
    106 H11X        4.6020   19.7780   -0.7700 H         1 PLP1        0.0000
    107 H11Y        5.1490   19.8830   -2.4790 H         1 PLP1        0.0000
    108 C312        6.3680   21.0030   -1.0730 C.3       1 PLP1        0.0000
    109 H12X        7.2650   21.0150   -1.7330 H         1 PLP1        0.0000
    110 H12Y        6.7230   20.9020   -0.0230 H         1 PLP1        0.0000
    111 C313        5.6190   22.3350   -1.2220 C.3       1 PLP1        0.0000
    112 H13X        4.7210   22.3230   -0.5630 H         1 PLP1        0.0000
    113 H13Y        5.2670   22.4400   -2.2720 H         1 PLP1        0.0000
    114 C314        6.4890   23.5470   -0.8600 C.3       1 PLP1        0.0000
    115 H14X        7.3860   23.5620   -1.5180 H         1 PLP1        0.0000
    116 H14Y        6.8410   23.4420    0.1910 H         1 PLP1        0.0000
    117 C315        5.7420   24.8800   -1.0050 C.3       1 PLP1        0.0000
    118 H15X        4.8410   24.8590   -0.3490 H         1 PLP1        0.0000
    119 H15Y        5.3870   24.9800   -2.0560 H         1 PLP1        0.0000
    120 C316        6.5970   26.0980   -0.6450 C.3       1 PLP1        0.0000
    121 H16X        7.4910   26.1530   -1.3040 H         1 PLP1        0.0000
    122 H16Y        6.9430   26.0330    0.4090 H         1 PLP1        0.0000
    123 H16Z        6.0130   27.0360   -0.7660 H         1 PLP1        0.0000
@<TRIPOS>BOND
     1   59   58 1 
     2   37   36 1 
     3   57   56 1 
     4   23   22 2 
     5   55   54 1 
     6   52   51 1 
     7   56   54 2 
     8   56   58 1 
     9   25   24 1 
    10   54   51 1 
    11   43   42 1 
    12   38   36 1 
    13   58   60 1 
    14   58   61 1 
    15   36   24 1 
    16   36   39 1 
    17   51   53 1 
    18   51   48 1 
    19   17   16 1 
    20   24   22 1 
    21   24   26 1 
    22   22   21 1 
    23   42   44 1 
    24   42   39 1 
    25   42   45 1 
    26   61   62 1 
    27   61   63 2 
    28   20   19 1 
    29   39   41 1 
    30   39   40 1 
    31   67   65 1 
    32   16   15 1 
    33   16   19 1 
    34   16   18 1 
    35   21   19 1 
    36   48   45 1 
    37   48   49 1 
    38   48   50 1 
    39   15   11 1 
    40   19   27 1 
    41   47   45 1 
    42   45   46 1 
    43   63   65 1 
    44   63   64 1 
    45   65   66 1 
    46   65   68 1 
    47   83   81 1 
    48   70   68 1 
    49   89   87 1 
    50   12   11 2 
    51   95   93 1 
    52   11   13 1 
    53   11   14 1 
    54   32   31 2 
    55  101   99 1 
    56   69   68 1 
    57   68   71 1 
    58  107  105 1 
    59   34   33 1 
    60  113  111 1 
    61   27   29 1 
    62   27   30 1 
    63   27   28 1 
    64   85   84 1 
    65   91   90 1 
    66   31   30 1 
    67   31   33 1 
    68   97   96 1 
    69  119  117 1 
    70   81   33 1 
    71   81   84 1 
    72   81   82 1 
    73  103  102 1 
    74   87   84 1 
    75   87   90 1 
    76   87   88 1 
    77   33   35 1 
    78   93   90 1 
    79   93   96 1 
    80   93   94 1 
    81  109  108 1 
    82   84   86 1 
    83   99   96 1 
    84   99  102 1 
    85   99  100 1 
    86   78   77 1 
    87   90   92 1 
    88  115  114 1 
    89    4    1 1 
    90  105  102 1 
    91  105  108 1 
    92  105  106 1 
    93   96   98 1 
    94   14    8 1 
    95  121  120 1 
    96  102  104 1 
    97  111  108 1 
    98  111  114 1 
    99  111  112 1 
   100  108  110 1 
   101   71   72 1 
   102   71   73 1 
   103   71   74 1 
   104  117  114 1 
   105  117  120 1 
   106  117  118 1 
   107  114  116 1 
   108  123  120 1 
   109  120  122 1 
   110   79   77 1 
   111    3    1 1 
   112   77   74 1 
   113   77   80 1 
   114    1    2 1 
   115    1    5 1 
   116    9    8 1 
   117    8    5 1 
   118    8   10 1 
   119   74   76 1 
   120   74   75 1 
   121    5    7 1 
   122    5    6 1 
