@<TRIPOS>MOLECULE
C:\Users\Praveer\PycharmProjects\pdb_to_mol2_converter\data\pdb\plpi35.pdb
  145   145     0     0     0
SMALL
GASTEIGER

@<TRIPOS>ATOM
      1 C12         1.8640    0.1380    0.3220 C.3       1 PLP1        0.0000
      2 H2          2.3040   -0.5560   -0.4350 H         1 PLP1        0.0000
      3 O2          2.3070   -0.3130    1.5910 O.3       1 PLP1        0.0000
      4 HO2         3.2690   -0.4380    1.4090 H         1 PLP1        0.0000
      5 C13         2.4150    1.5440    0.0660 C.3       1 PLP1        0.0000
      6 H3          2.1540    1.7490   -1.0020 H         1 PLP1        0.0000
      7 O3          3.8530    1.6430    0.1640 O.3       1 PLP1        0.0000
      8 P3          4.9470    0.4950   -0.3220 P.3       1 PLP1        0.0000
      9 OP32        6.3280    1.1510   -0.2690 O.3       1 PLP1        0.0000
     10 OP33        4.5630    0.0570   -1.7360 O.2       1 PLP1        0.0000
     11 OP34        4.8180   -0.6360    0.6940 O.3       1 PLP1        0.0000
     12 C14         1.6900    2.6800    0.8430 C.3       1 PLP1        0.0000
     13 H4          2.1910    2.6340    1.8440 H         1 PLP1        0.0000
     14 O4          2.0560    3.9480    0.2840 O.3       1 PLP1        0.0000
     15 P4          1.2910    5.3430   -0.1580 P.3       1 PLP1        0.0000
     16 OP42        2.3940    6.3670   -0.4370 O.3       1 PLP1        0.0000
     17 OP43        0.4100    5.7990    0.9990 O.3       1 PLP1        0.0000
     18 OP44        0.4790    5.0340   -1.4140 O.2       1 PLP1        0.0000
     19 C15         0.1860    2.4520    1.1760 C.3       1 PLP1        0.0000
     20 H5         -0.3160    3.0780    0.3930 H         1 PLP1        0.0000
     21 O5         -0.1300    2.9690    2.4840 O.3       1 PLP1        0.0000
     22 P5         -1.6030    3.5640    2.8760 P.3       1 PLP1        0.0000
     23 OP52       -1.8290    4.8220    1.9400 O.3       1 PLP1        0.0000
     24 HP52       -0.9640    5.1460    1.5810 H         1 PLP1        0.0000
     25 OP53       -2.6840    2.5430    2.5340 O.2       1 PLP1        0.0000
     26 OP54       -1.5800    4.0290    4.3330 O.3       1 PLP1        0.0000
     27 C16        -0.4240    1.0410    0.9620 C.3       1 PLP1        0.0000
     28 H6         -0.4250    0.6070    1.9970 H         1 PLP1        0.0000
     29 O6         -1.7840    1.1240    0.5230 O.3       1 PLP1        0.0000
     30 HO6        -2.2310    1.6460    1.2230 H         1 PLP1        0.0000
     31 C11         0.3560    0.0130    0.1610 C.3       1 PLP1        0.0000
     32 H1          0.1930    0.3490   -0.8960 H         1 PLP1        0.0000
     33 P          -0.2300   -2.3790    1.4650 P.3       1 PLP1        0.0000
     34 O13        -0.6140   -1.7610    2.7530 O.3       1 PLP1        0.0000
     35 O14         0.8890   -3.3560    1.4720 O.2       1 PLP1        0.0000
     36 O12        -0.1440   -1.3400    0.1860 O.3       1 PLP1        0.0000
     37 O11        -1.4910   -3.2790    1.0550 O.3       1 PLP1        0.0000
     38 C1         -1.9050   -4.3220    1.9510 C.3       1 PLP1        0.0000
     39 HA         -2.9360   -4.1050    2.3030 H         1 PLP1        0.0000
     40 HB         -1.2630   -4.4010    2.8640 H         1 PLP1        0.0000
     41 C2         -1.8960   -5.7080    1.2540 C.3       1 PLP1        0.0000
     42 HS         -2.6930   -5.6770    0.4740 H         1 PLP1        0.0000
     43 O21        -2.1530   -6.7070    2.2690 O.3       1 PLP1        0.0000
     44 C21        -2.7480   -7.8140    1.8630 C.2       1 PLP1        0.0000
     45 O22        -3.1980   -8.0330    0.7610 O.2       1 PLP1        0.0000
     46 C22        -2.7890   -8.8060    3.0370 C.3       1 PLP1        0.0000
     47 H2R        -3.2800   -8.3000    3.8930 H         1 PLP1        0.0000
     48 H2S        -1.7420   -9.0420    3.3150 H         1 PLP1        0.0000
     49 C3         -0.5350   -5.9840    0.5400 C.3       1 PLP1        0.0000
     50 HX          0.2630   -5.8910    1.3120 H         1 PLP1        0.0000
     51 HY         -0.3370   -5.1760   -0.2030 H         1 PLP1        0.0000
     52 O31        -0.4660   -7.3080   -0.0470 O.3       1 PLP1        0.0000
     53 C31        -1.0320   -7.4130   -1.2490 C.2       1 PLP1        0.0000
     54 O32        -1.5060   -6.5150   -1.9020 O.2       1 PLP1        0.0000
     55 C32        -0.9920   -8.8850   -1.6800 C.3       1 PLP1        0.0000
     56 H2X        -1.5710   -9.4670   -0.9340 H         1 PLP1        0.0000
     57 H2Y         0.0630   -9.2230   -1.6640 H         1 PLP1        0.0000
     58 C23        -3.5500  -10.1070    2.6810 C.3       1 PLP1        0.0000
     59 H3R        -3.0350  -10.6180    1.8350 H         1 PLP1        0.0000
     60 H3S        -4.5800   -9.8520    2.3410 H         1 PLP1        0.0000
     61 C24        -3.6610  -11.0910    3.8560 C.3       1 PLP1        0.0000
     62 H4R        -4.1760  -10.5930    4.7080 H         1 PLP1        0.0000
     63 H4S        -2.6420  -11.3790    4.1980 H         1 PLP1        0.0000
     64 C25        -4.4410  -12.3600    3.4760 C.3       1 PLP1        0.0000
     65 H5R        -3.9250  -12.8610    2.6260 H         1 PLP1        0.0000
     66 H5S        -5.4580  -12.0700    3.1280 H         1 PLP1        0.0000
     67 C26        -4.5790  -13.3600    4.6330 C.3       1 PLP1        0.0000
     68 H6R        -5.1030  -12.8670    5.4820 H         1 PLP1        0.0000
     69 H6S        -3.5660  -13.6540    4.9850 H         1 PLP1        0.0000
     70 C27        -5.3580  -14.6220    4.2280 C.3       1 PLP1        0.0000
     71 H7R        -4.8400  -15.0960    3.3650 H         1 PLP1        0.0000
     72 H7S        -6.3750  -14.3180    3.8910 H         1 PLP1        0.0000
     73 C28        -5.4820  -15.6400    5.3780 C.3       1 PLP1        0.0000
     74 H8R        -5.9600  -15.1240    6.2410 H         1 PLP1        0.0000
     75 H8S        -4.4580  -15.9280    5.7030 H         1 PLP1        0.0000
     76 C29        -6.2510  -16.8710    4.9580 C.2       1 PLP1        0.0000
     77 H91        -5.8320  -17.4010    4.0890 H         1 PLP1        0.0000
     78 C210       -7.3780  -17.3470    5.5250 C.2       1 PLP1        0.0000
     79 H101       -7.8340  -18.2590    5.1070 H         1 PLP1        0.0000
     80 C211       -8.1070  -16.7650    6.7130 C.3       1 PLP1        0.0000
     81 H11R       -7.3750  -16.3350    7.4340 H         1 PLP1        0.0000
     82 H11S       -8.6150  -17.5870    7.2650 H         1 PLP1        0.0000
     83 C212       -9.1120  -15.7030    6.3400 C.2       1 PLP1        0.0000
     84 H121       -9.1690  -15.4160    5.2770 H         1 PLP1        0.0000
     85 C213       -9.9240  -15.1040    7.2250 C.2       1 PLP1        0.0000
     86 H131       -9.8690  -15.3870    8.2880 H         1 PLP1        0.0000
     87 C214      -10.9300  -14.0440    6.8590 C.3       1 PLP1        0.0000
     88 H14R      -11.6720  -14.4560    6.1390 H         1 PLP1        0.0000
     89 H14S      -10.4230  -13.1890    6.3570 H         1 PLP1        0.0000
     90 C215      -11.6920  -13.5070    8.0860 C.3       1 PLP1        0.0000
     91 H15R      -10.9700  -13.0550    8.8030 H         1 PLP1        0.0000
     92 H15S      -12.2070  -14.3490    8.6020 H         1 PLP1        0.0000
     93 C216      -12.7430  -12.4490    7.7170 C.3       1 PLP1        0.0000
     94 H16R      -13.4730  -12.8930    7.0030 H         1 PLP1        0.0000
     95 H16S      -12.2430  -11.5980    7.2030 H         1 PLP1        0.0000
     96 C217      -13.5030  -11.9170    8.9390 C.3       1 PLP1        0.0000
     97 H17R      -12.7710  -11.4780    9.6550 H         1 PLP1        0.0000
     98 H17S      -14.0010  -12.7700    9.4540 H         1 PLP1        0.0000
     99 C218      -14.5540  -10.8620    8.5840 C.3       1 PLP1        0.0000
    100 H18R      -15.3100  -11.2860    7.8890 H         1 PLP1        0.0000
    101 H18S      -14.0750   -9.9890    8.0900 H         1 PLP1        0.0000
    102 H18T      -15.0760  -10.5060    9.4980 H         1 PLP1        0.0000
    103 C33        -1.6020   -9.0890   -3.0850 C.3       1 PLP1        0.0000
    104 H3X        -0.9950   -8.5390   -3.8400 H         1 PLP1        0.0000
    105 H3Y        -2.6320   -8.6610   -3.1090 H         1 PLP1        0.0000
    106 C34        -1.6850  -10.5680   -3.4830 C.3       1 PLP1        0.0000
    107 H4X        -2.3100  -11.1090   -2.7380 H         1 PLP1        0.0000
    108 H4Y        -0.6660  -11.0140   -3.4590 H         1 PLP1        0.0000
    109 C35        -2.2890  -10.7630   -4.8810 C.3       1 PLP1        0.0000
    110 H5X        -1.6540  -10.2340   -5.6270 H         1 PLP1        0.0000
    111 H5Y        -3.3000  -10.2970   -4.9070 H         1 PLP1        0.0000
    112 C36        -2.4070  -12.2410   -5.2750 C.3       1 PLP1        0.0000
    113 H6X        -3.0560  -12.7640   -4.5370 H         1 PLP1        0.0000
    114 H6Y        -1.3980  -12.7100   -5.2320 H         1 PLP1        0.0000
    115 C37        -2.9890  -12.4370   -6.6820 C.3       1 PLP1        0.0000
    116 H7X        -2.3450  -11.9070   -7.4200 H         1 PLP1        0.0000
    117 H7Y        -4.0020  -11.9770   -6.7270 H         1 PLP1        0.0000
    118 C38        -3.0880  -13.9180   -7.0720 C.3       1 PLP1        0.0000
    119 H8X        -3.7450  -14.4430   -6.3420 H         1 PLP1        0.0000
    120 H8Y        -2.0760  -14.3760   -7.0070 H         1 PLP1        0.0000
    121 C39        -3.6410  -14.1310   -8.4880 C.3       1 PLP1        0.0000
    122 H9X        -2.9890  -13.6000   -9.2180 H         1 PLP1        0.0000
    123 H9Y        -4.6590  -13.6870   -8.5560 H         1 PLP1        0.0000
    124 C310       -3.7120  -15.6170   -8.8670 C.3       1 PLP1        0.0000
    125 H10X       -4.3720  -16.1460   -8.1440 H         1 PLP1        0.0000
    126 H10Y       -2.6940  -16.0610   -8.7840 H         1 PLP1        0.0000
    127 C311       -4.2410  -15.8440  -10.2890 C.3       1 PLP1        0.0000
    128 H11X       -3.5850  -15.3110  -11.0120 H         1 PLP1        0.0000
    129 H11Y       -5.2620  -15.4100  -10.3730 H         1 PLP1        0.0000
    130 C312       -4.2940  -17.3310  -10.6620 C.3       1 PLP1        0.0000
    131 H12X       -4.9550  -17.8660   -9.9430 H         1 PLP1        0.0000
    132 H12Y       -3.2730  -17.7670  -10.5710 H         1 PLP1        0.0000
    133 C313       -4.8110  -17.5630  -12.0870 C.3       1 PLP1        0.0000
    134 H13X       -4.1520  -17.0270  -12.8060 H         1 PLP1        0.0000
    135 H13Y       -5.8340  -17.1320  -12.1790 H         1 PLP1        0.0000
    136 C314       -4.8570  -19.0500  -12.4610 C.3       1 PLP1        0.0000
    137 H14X       -5.5170  -19.5870  -11.7440 H         1 PLP1        0.0000
    138 H14Y       -3.8350  -19.4810  -12.3680 H         1 PLP1        0.0000
    139 C315       -5.3710  -19.2840  -13.8870 C.3       1 PLP1        0.0000
    140 H15X       -4.7110  -18.7400  -14.6000 H         1 PLP1        0.0000
    141 H15Y       -6.3920  -18.8470  -13.9760 H         1 PLP1        0.0000
    142 C316       -5.4200  -20.7640  -14.2750 C.3       1 PLP1        0.0000
    143 H16X       -6.0930  -21.3230  -13.5890 H         1 PLP1        0.0000
    144 H16Y       -4.4060  -21.2140  -14.2160 H         1 PLP1        0.0000
    145 H16Z       -5.7990  -20.8830  -15.3130 H         1 PLP1        0.0000
@<TRIPOS>BOND
     1  145  142 1 
     2  140  139 1 
     3  142  144 1 
     4  142  139 1 
     5  142  143 1 
     6  141  139 1 
     7  139  136 1 
     8  134  133 1 
     9  136  138 1 
    10  136  133 1 
    11  136  137 1 
    12  135  133 1 
    13  133  130 1 
    14  128  127 1 
    15  130  132 1 
    16  130  127 1 
    17  130  131 1 
    18  129  127 1 
    19  127  124 1 
    20  122  121 1 
    21  124  126 1 
    22  124  121 1 
    23  124  125 1 
    24  123  121 1 
    25  121  118 1 
    26  116  115 1 
    27  118  120 1 
    28  118  115 1 
    29  118  119 1 
    30  117  115 1 
    31  115  112 1 
    32  110  109 1 
    33  112  114 1 
    34  112  109 1 
    35  112  113 1 
    36  111  109 1 
    37  109  106 1 
    38  104  103 1 
    39  106  108 1 
    40  106  103 1 
    41  106  107 1 
    42  105  103 1 
    43  103   55 1 
    44   54   53 2 
    45   10    8 2 
    46   55   57 1 
    47   55   53 1 
    48   55   56 1 
    49   18   15 2 
    50   53   52 1 
    51    6    5 1 
    52   32   31 1 
    53   16   15 1 
    54    2    1 1 
    55    8    9 1 
    56    8    7 1 
    57    8   11 1 
    58   51   49 1 
    59   15   14 1 
    60   15   17 1 
    61   52   49 1 
    62    5    7 1 
    63    5    1 1 
    64    5   12 1 
    65   31   36 1 
    66   31    1 1 
    67   31   27 1 
    68   36   33 1 
    69   14   12 1 
    70    1    3 1 
    71   20   19 1 
    72   42   41 1 
    73   29   27 1 
    74   29   30 1 
    75   49   41 1 
    76   49   50 1 
    77   45   44 2 
    78   12   19 1 
    79   12   13 1 
    80   27   19 1 
    81   27   28 1 
    82   37   33 1 
    83   37   38 1 
    84   19   21 1 
    85   41   38 1 
    86   41   43 1 
    87    4    3 1 
    88   33   35 2 
    89   33   34 1 
    90   24   23 1 
    91   59   58 1 
    92   44   43 1 
    93   44   46 1 
    94   23   22 1 
    95   38   39 1 
    96   38   40 1 
    97   60   58 1 
    98   21   22 1 
    99   25   22 2 
   100   65   64 1 
   101   58   46 1 
   102   58   61 1 
   103   22   26 1 
   104   46   48 1 
   105   46   47 1 
   106   66   64 1 
   107   71   70 1 
   108   64   61 1 
   109   64   67 1 
   110   61   63 1 
   111   61   62 1 
   112   72   70 1 
   113   77   76 1 
   114   70   67 1 
   115   70   73 1 
   116   67   69 1 
   117   67   68 1 
   118   76   73 1 
   119   76   78 2 
   120   79   78 1 
   121   84   83 1 
   122   73   75 1 
   123   73   74 1 
   124   78   80 1 
   125   88   87 1 
   126   83   80 1 
   127   83   85 2 
   128   89   87 1 
   129   80   82 1 
   130   80   81 1 
   131   87   85 1 
   132   87   90 1 
   133   94   93 1 
   134   95   93 1 
   135   85   86 1 
   136   93   90 1 
   137   93   96 1 
   138  100   99 1 
   139   90   92 1 
   140   90   91 1 
   141  101   99 1 
   142   99   96 1 
   143   99  102 1 
   144   96   98 1 
   145   96   97 1 
