@<TRIPOS>MOLECULE
C:\Users\Praveer\PycharmProjects\pdb_to_mol2_converter\data\pdb\plpi34.pdb
  145   145     0     0     0
SMALL
GASTEIGER

@<TRIPOS>ATOM
      1 C12         1.7930    0.1320    0.3060 C.3       1 PLP1        0.0000
      2 H2          2.1890   -0.5170   -0.5180 H         1 PLP1        0.0000
      3 O2          2.3230   -0.3680    1.5250 O.3       1 PLP1        0.0000
      4 HO2         3.2800   -0.4600    1.3010 H         1 PLP1        0.0000
      5 C13         2.3060    1.5510    0.0990 C.3       1 PLP1        0.0000
      6 H3          1.9800    1.8270   -0.9320 H         1 PLP1        0.0000
      7 O3          3.7450    1.6560    0.1270 O.3       1 PLP1        0.0000
      8 P3          4.8490    0.5740   -0.4670 P.3       1 PLP1        0.0000
      9 OP32        6.1970    1.2900   -0.4360 O.3       1 PLP1        0.0000
     10 OP33        4.4160    0.2080   -1.8830 O.2       1 PLP1        0.0000
     11 OP34        4.8010   -0.6100    0.4960 O.3       1 PLP1        0.0000
     12 C14         1.6120    2.5790    1.0360 C.3       1 PLP1        0.0000
     13 H4          2.0210    2.3100    2.0460 H         1 PLP1        0.0000
     14 O4          1.9760    3.9450    0.8410 O.3       1 PLP1        0.0000
     15 P4          2.3170    4.7600   -0.5260 P.3       1 PLP1        0.0000
     16 OP42        3.8230    4.3110   -0.7760 O.3       1 PLP1        0.0000
     17 HP42        3.8950    3.3600   -0.5670 H         1 PLP1        0.0000
     18 OP43        1.4600    4.3230   -1.7090 O.2       1 PLP1        0.0000
     19 OP44        2.3720    6.2610   -0.2440 O.3       1 PLP1        0.0000
     20 C15         0.0670    2.4400    1.2550 C.3       1 PLP1        0.0000
     21 H5         -0.3610    3.0450    0.4110 H         1 PLP1        0.0000
     22 O5         -0.3640    3.0260    2.5040 O.3       1 PLP1        0.0000
     23 P5         -1.8690    3.6730    2.8130 P.3       1 PLP1        0.0000
     24 OP52       -2.1230    4.8040    1.8210 O.2       1 PLP1        0.0000
     25 OP53       -2.8720    2.5320    2.6430 O.3       1 PLP1        0.0000
     26 OP54       -1.8250    4.1750    4.2570 O.3       1 PLP1        0.0000
     27 C16        -0.5200    1.0210    1.0840 C.3       1 PLP1        0.0000
     28 H6         -0.4920    0.5840    2.1140 H         1 PLP1        0.0000
     29 O6         -1.8980    1.0860    0.7170 O.3       1 PLP1        0.0000
     30 HO6        -2.3050    1.6640    1.4180 H         1 PLP1        0.0000
     31 C11         0.2690    0.0200    0.2290 C.3       1 PLP1        0.0000
     32 H1          0.0720    0.4010   -0.8070 H         1 PLP1        0.0000
     33 P          -0.1650   -2.4420    1.4320 P.3       1 PLP1        0.0000
     34 O13        -0.3900   -1.9030    2.7940 O.3       1 PLP1        0.0000
     35 O14         0.9450   -3.4120    1.2530 O.2       1 PLP1        0.0000
     36 O12        -0.2180   -1.3350    0.2130 O.3       1 PLP1        0.0000
     37 O11        -1.4740   -3.3080    1.1100 O.3       1 PLP1        0.0000
     38 C1         -1.8320   -4.3690    2.0050 C.3       1 PLP1        0.0000
     39 HA         -2.8430   -4.1690    2.4230 H         1 PLP1        0.0000
     40 HB         -1.1380   -4.4580    2.8770 H         1 PLP1        0.0000
     41 C2         -1.8520   -5.7370    1.2810 C.3       1 PLP1        0.0000
     42 HS         -2.6660   -5.7010    0.5170 H         1 PLP1        0.0000
     43 O21        -2.0870   -6.7390    2.2950 O.3       1 PLP1        0.0000
     44 C21        -2.7120   -7.8260    1.8980 C.2       1 PLP1        0.0000
     45 O22        -3.1900   -8.0320    0.7980 O.2       1 PLP1        0.0000
     46 C22        -2.7660   -8.8150    3.0650 C.3       1 PLP1        0.0000
     47 H2R        -3.2620   -8.3100    3.9180 H         1 PLP1        0.0000
     48 H2S        -1.7260   -9.0670    3.3570 H         1 PLP1        0.0000
     49 C3         -0.5060   -6.0090    0.5390 C.3       1 PLP1        0.0000
     50 HX          0.3050   -5.9250    1.2960 H         1 PLP1        0.0000
     51 HY         -0.3160   -5.1940   -0.2020 H         1 PLP1        0.0000
     52 O31        -0.4510   -7.3290   -0.0510 O.3       1 PLP1        0.0000
     53 C31        -1.0200   -7.4260   -1.2450 C.2       1 PLP1        0.0000
     54 O32        -1.4920   -6.5160   -1.8990 O.2       1 PLP1        0.0000
     55 C32        -0.9970   -8.8920   -1.6780 C.3       1 PLP1        0.0000
     56 H2X        -1.5910   -9.4660   -0.9360 H         1 PLP1        0.0000
     57 H2Y         0.0530   -9.2460   -1.6530 H         1 PLP1        0.0000
     58 C23        -3.5380  -10.0960    2.6860 C.3       1 PLP1        0.0000
     59 H3R        -3.0260  -10.6050    1.8360 H         1 PLP1        0.0000
     60 H3S        -4.5640   -9.8260    2.3430 H         1 PLP1        0.0000
     61 C24        -3.6570  -11.0780    3.8580 C.3       1 PLP1        0.0000
     62 H4R        -4.1730  -10.5730    4.7050 H         1 PLP1        0.0000
     63 H4S        -2.6370  -11.3610    4.2010 H         1 PLP1        0.0000
     64 C25        -4.4340  -12.3440    3.4740 C.3       1 PLP1        0.0000
     65 H5R        -3.9150  -12.8440    2.6250 H         1 PLP1        0.0000
     66 H5S        -5.4500  -12.0530    3.1230 H         1 PLP1        0.0000
     67 C26        -4.5750  -13.3430    4.6310 C.3       1 PLP1        0.0000
     68 H6R        -5.1010  -12.8500    5.4790 H         1 PLP1        0.0000
     69 H6S        -3.5620  -13.6370    4.9860 H         1 PLP1        0.0000
     70 C27        -5.3520  -14.6030    4.2200 C.3       1 PLP1        0.0000
     71 H7R        -4.8290  -15.0750    3.3570 H         1 PLP1        0.0000
     72 H7S        -6.3670  -14.2980    3.8780 H         1 PLP1        0.0000
     73 C28        -5.4840  -15.6210    5.3670 C.3       1 PLP1        0.0000
     74 H8R        -5.9750  -15.1040    6.2220 H         1 PLP1        0.0000
     75 H8S        -4.4630  -15.9060    5.7070 H         1 PLP1        0.0000
     76 C29        -6.2460  -16.8520    4.9380 C.2       1 PLP1        0.0000
     77 H91        -5.8260  -17.3730    4.0640 H         1 PLP1        0.0000
     78 C210       -7.3720  -17.3330    5.5020 C.2       1 PLP1        0.0000
     79 H101       -7.8290  -18.2410    5.0780 H         1 PLP1        0.0000
     80 C211       -8.0960  -16.7570    6.6960 C.3       1 PLP1        0.0000
     81 H11R       -7.3630  -16.3200    7.4110 H         1 PLP1        0.0000
     82 H11S       -8.5900  -17.5840    7.2530 H         1 PLP1        0.0000
     83 C212       -9.1170  -15.7050    6.3350 C.2       1 PLP1        0.0000
     84 H121       -9.1930  -15.4250    5.2710 H         1 PLP1        0.0000
     85 C213       -9.9150  -15.0990    7.2280 C.2       1 PLP1        0.0000
     86 H131       -9.8360  -15.3650    8.2930 H         1 PLP1        0.0000
     87 C214      -10.9330  -14.0470    6.8720 C.3       1 PLP1        0.0000
     88 H14R      -11.6800  -14.4620    6.1580 H         1 PLP1        0.0000
     89 H14S      -10.4390  -13.1860    6.3660 H         1 PLP1        0.0000
     90 C215      -11.6910  -13.5120    8.1020 C.3       1 PLP1        0.0000
     91 H15R      -10.9700  -13.0600    8.8190 H         1 PLP1        0.0000
     92 H15S      -12.2050  -14.3530    8.6200 H         1 PLP1        0.0000
     93 C216      -12.7410  -12.4560    7.7240 C.3       1 PLP1        0.0000
     94 H16R      -13.4660  -12.9040    7.0080 H         1 PLP1        0.0000
     95 H16S      -12.2360  -11.6100    7.2070 H         1 PLP1        0.0000
     96 C217      -13.5080  -11.9140    8.9380 C.3       1 PLP1        0.0000
     97 H17R      -12.7790  -11.4720    9.6550 H         1 PLP1        0.0000
     98 H17S      -14.0100  -12.7640    9.4540 H         1 PLP1        0.0000
     99 C218      -14.5560  -10.8580    8.5740 C.3       1 PLP1        0.0000
    100 H18R      -15.3110  -11.2830    7.8780 H         1 PLP1        0.0000
    101 H18S      -14.0750   -9.9870    8.0800 H         1 PLP1        0.0000
    102 H18T      -15.0810  -10.4990    9.4850 H         1 PLP1        0.0000
    103 C33        -1.6000   -9.0830   -3.0860 C.3       1 PLP1        0.0000
    104 H3X        -0.9830   -8.5360   -3.8340 H         1 PLP1        0.0000
    105 H3Y        -2.6250   -8.6450   -3.1160 H         1 PLP1        0.0000
    106 C34        -1.6950  -10.5600   -3.4850 C.3       1 PLP1        0.0000
    107 H4X        -2.3270  -11.0950   -2.7410 H         1 PLP1        0.0000
    108 H4Y        -0.6790  -11.0140   -3.4570 H         1 PLP1        0.0000
    109 C35        -2.2960  -10.7510   -4.8830 C.3       1 PLP1        0.0000
    110 H5X        -1.6590  -10.2230   -5.6280 H         1 PLP1        0.0000
    111 H5Y        -3.3070  -10.2850   -4.9120 H         1 PLP1        0.0000
    112 C36        -2.4130  -12.2290   -5.2770 C.3       1 PLP1        0.0000
    113 H6X        -3.0610  -12.7530   -4.5390 H         1 PLP1        0.0000
    114 H6Y        -1.4030  -12.6970   -5.2320 H         1 PLP1        0.0000
    115 C37        -2.9930  -12.4280   -6.6830 C.3       1 PLP1        0.0000
    116 H7X        -2.3480  -11.9010   -7.4220 H         1 PLP1        0.0000
    117 H7Y        -4.0060  -11.9710   -6.7320 H         1 PLP1        0.0000
    118 C38        -3.0880  -13.9100   -7.0660 C.3       1 PLP1        0.0000
    119 H8X        -3.7440  -14.4350   -6.3360 H         1 PLP1        0.0000
    120 H8Y        -2.0750  -14.3680   -7.0000 H         1 PLP1        0.0000
    121 C39        -3.6390  -14.1250   -8.4810 C.3       1 PLP1        0.0000
    122 H9X        -2.9870  -13.5950   -9.2120 H         1 PLP1        0.0000
    123 H9Y        -4.6570  -13.6810   -8.5510 H         1 PLP1        0.0000
    124 C310       -3.7090  -15.6100   -8.8550 C.3       1 PLP1        0.0000
    125 H10X       -4.3690  -16.1390   -8.1320 H         1 PLP1        0.0000
    126 H10Y       -2.6910  -16.0540   -8.7710 H         1 PLP1        0.0000
    127 C311       -4.2360  -15.8360  -10.2770 C.3       1 PLP1        0.0000
    128 H11X       -3.5790  -15.3020  -10.9990 H         1 PLP1        0.0000
    129 H11Y       -5.2570  -15.4010  -10.3620 H         1 PLP1        0.0000
    130 C312       -4.2890  -17.3230  -10.6490 C.3       1 PLP1        0.0000
    131 H12X       -4.9500  -17.8570   -9.9290 H         1 PLP1        0.0000
    132 H12Y       -3.2680  -17.7580  -10.5570 H         1 PLP1        0.0000
    133 C313       -4.8060  -17.5520  -12.0740 C.3       1 PLP1        0.0000
    134 H13X       -4.1460  -17.0150  -12.7920 H         1 PLP1        0.0000
    135 H13Y       -5.8280  -17.1210  -12.1650 H         1 PLP1        0.0000
    136 C314       -4.8510  -19.0390  -12.4480 C.3       1 PLP1        0.0000
    137 H14X       -5.5110  -19.5760  -11.7300 H         1 PLP1        0.0000
    138 H14Y       -3.8290  -19.4700  -12.3550 H         1 PLP1        0.0000
    139 C315       -5.3660  -19.2720  -13.8740 C.3       1 PLP1        0.0000
    140 H15X       -4.7060  -18.7270  -14.5870 H         1 PLP1        0.0000
    141 H15Y       -6.3870  -18.8340  -13.9620 H         1 PLP1        0.0000
    142 C316       -5.4160  -20.7510  -14.2630 C.3       1 PLP1        0.0000
    143 H16X       -6.0880  -21.3110  -13.5770 H         1 PLP1        0.0000
    144 H16Y       -4.4020  -21.2020  -14.2040 H         1 PLP1        0.0000
    145 H16Z       -5.7950  -20.8690  -15.3010 H         1 PLP1        0.0000
@<TRIPOS>BOND
     1  145  142 1 
     2  140  139 1 
     3  142  144 1 
     4  142  139 1 
     5  142  143 1 
     6  141  139 1 
     7  139  136 1 
     8  134  133 1 
     9  136  138 1 
    10  136  133 1 
    11  136  137 1 
    12  135  133 1 
    13  133  130 1 
    14  128  127 1 
    15  130  132 1 
    16  130  127 1 
    17  130  131 1 
    18  129  127 1 
    19  127  124 1 
    20  122  121 1 
    21  124  126 1 
    22  124  121 1 
    23  124  125 1 
    24  123  121 1 
    25  121  118 1 
    26  116  115 1 
    27  118  120 1 
    28  118  115 1 
    29  118  119 1 
    30  117  115 1 
    31  115  112 1 
    32  110  109 1 
    33  112  114 1 
    34  112  109 1 
    35  112  113 1 
    36  111  109 1 
    37  109  106 1 
    38  104  103 1 
    39  106  108 1 
    40  106  103 1 
    41  106  107 1 
    42  105  103 1 
    43  103   55 1 
    44   54   53 2 
    45   10    8 2 
    46   18   15 2 
    47   55   57 1 
    48   55   53 1 
    49   55   56 1 
    50   53   52 1 
    51    6    5 1 
    52   32   31 1 
    53   16   17 1 
    54   16   15 1 
    55   15   19 1 
    56   15   14 1 
    57    2    1 1 
    58    8    9 1 
    59    8    7 1 
    60    8   11 1 
    61   51   49 1 
    62   52   49 1 
    63    5    7 1 
    64    5    1 1 
    65    5   12 1 
    66   36   31 1 
    67   36   33 1 
    68   31    1 1 
    69   31   27 1 
    70    1    3 1 
    71   21   20 1 
    72   42   41 1 
    73   49   41 1 
    74   49   50 1 
    75   29   27 1 
    76   29   30 1 
    77   45   44 2 
    78   14   12 1 
    79   12   20 1 
    80   12   13 1 
    81   27   20 1 
    82   27   28 1 
    83   37   33 1 
    84   37   38 1 
    85   35   33 2 
    86   20   22 1 
    87   41   38 1 
    88   41   43 1 
    89    4    3 1 
    90   33   34 1 
    91   24   23 2 
    92   59   58 1 
    93   44   43 1 
    94   44   46 1 
    95   38   39 1 
    96   38   40 1 
    97   60   58 1 
    98   22   23 1 
    99   65   64 1 
   100   25   23 1 
   101   58   46 1 
   102   58   61 1 
   103   23   26 1 
   104   46   48 1 
   105   46   47 1 
   106   66   64 1 
   107   71   70 1 
   108   64   61 1 
   109   64   67 1 
   110   61   63 1 
   111   61   62 1 
   112   72   70 1 
   113   77   76 1 
   114   70   67 1 
   115   70   73 1 
   116   67   69 1 
   117   67   68 1 
   118   76   73 1 
   119   76   78 2 
   120   79   78 1 
   121   84   83 1 
   122   73   75 1 
   123   73   74 1 
   124   78   80 1 
   125   88   87 1 
   126   83   80 1 
   127   83   85 2 
   128   89   87 1 
   129   80   82 1 
   130   80   81 1 
   131   87   85 1 
   132   87   90 1 
   133   94   93 1 
   134   95   93 1 
   135   85   86 1 
   136   93   90 1 
   137   93   96 1 
   138  100   99 1 
   139  101   99 1 
   140   90   92 1 
   141   90   91 1 
   142   99   96 1 
   143   99  102 1 
   144   96   98 1 
   145   96   97 1 
