@<TRIPOS>MOLECULE
C:\Users\Praveer\PycharmProjects\pdb_to_mol2_converter\data\pdb\plpi.pdb
  135   135     0     0     0
SMALL
GASTEIGER

@<TRIPOS>ATOM
      1 C12         1.6150    0.2190    0.0740 C.3       1 PLP1        0.0000
      2 H2          1.8740   -0.4260   -0.8040 H         1 PLP1        0.0000
      3 O2          2.3040   -0.2960    1.2110 O.3       1 PLP1        0.0000
      4 HO2         1.9170   -1.1680    1.4590 H         1 PLP1        0.0000
      5 C13         2.0720    1.6350   -0.2130 C.3       1 PLP1        0.0000
      6 H3          1.5130    2.0240   -1.0960 H         1 PLP1        0.0000
      7 O3          3.4570    1.6630   -0.5610 O.3       1 PLP1        0.0000
      8 HO3         3.9270    1.2390    0.1670 H         1 PLP1        0.0000
      9 C14         1.7310    2.5300    0.9740 C.3       1 PLP1        0.0000
     10 H4          2.2430    2.1320    1.8840 H         1 PLP1        0.0000
     11 O4          2.1870    3.8720    0.7970 O.3       1 PLP1        0.0000
     12 HO4         1.7690    4.3840    1.5000 H         1 PLP1        0.0000
     13 C15         0.2310    2.5050    1.2310 C.3       1 PLP1        0.0000
     14 H5         -0.2480    2.9360    0.3150 H         1 PLP1        0.0000
     15 O5         -0.1510    3.3470    2.3240 O.3       1 PLP1        0.0000
     16 HO5        -1.0780    3.1380    2.4970 H         1 PLP1        0.0000
     17 C16        -0.3290    1.0910    1.3920 C.3       1 PLP1        0.0000
     18 H6          0.0710    0.6850    2.3520 H         1 PLP1        0.0000
     19 O6         -1.7490    1.1270    1.4950 O.3       1 PLP1        0.0000
     20 HO6        -2.0060    0.2300    1.7870 H         1 PLP1        0.0000
     21 C11         0.1010    0.1840    0.2410 C.3       1 PLP1        0.0000
     22 H1         -0.3150    0.6470   -0.6900 H         1 PLP1        0.0000
     23 P          -0.4790   -2.1650    1.5130 P.3       1 PLP1        0.0000
     24 O13        -1.4250   -1.5700    2.4980 O.3       1 PLP1        0.0000
     25 O14         0.9020   -2.4600    1.9540 O.2       1 PLP1        0.0000
     26 O12        -0.3980   -1.1560    0.2220 O.3       1 PLP1        0.0000
     27 O11        -1.1180   -3.4780    0.8740 O.3       1 PLP1        0.0000
     28 C1         -1.7740   -4.4340    1.7160 C.3       1 PLP1        0.0000
     29 HA         -2.8260   -4.1130    1.8930 H         1 PLP1        0.0000
     30 HB         -1.2630   -4.5330    2.7060 H         1 PLP1        0.0000
     31 C2         -1.7780   -5.8520    1.0700 C.3       1 PLP1        0.0000
     32 HS         -2.5320   -5.8390    0.2460 H         1 PLP1        0.0000
     33 O21        -2.0900   -6.8250    2.0980 O.3       1 PLP1        0.0000
     34 C21        -2.6520   -7.9540    1.6840 C.2       1 PLP1        0.0000
     35 O22        -3.0460   -8.1850    0.5510 O.2       1 PLP1        0.0000
     36 C22        -2.7450   -8.9510    2.8490 C.3       1 PLP1        0.0000
     37 H2R        -3.2330   -8.4360    3.7010 H         1 PLP1        0.0000
     38 H2S        -1.7120   -9.2260    3.1450 H         1 PLP1        0.0000
     39 C3         -0.3850   -6.1630    0.4380 C.3       1 PLP1        0.0000
     40 HX          0.3550   -6.1390    1.2700 H         1 PLP1        0.0000
     41 HY         -0.1100   -5.3390   -0.2610 H         1 PLP1        0.0000
     42 O31        -0.3290   -7.4540   -0.2080 O.3       1 PLP1        0.0000
     43 C31        -0.9020   -7.4820   -1.4120 C.2       1 PLP1        0.0000
     44 O32        -1.3440   -6.5180   -2.0140 O.2       1 PLP1        0.0000
     45 C32        -0.9180   -8.9190   -1.9200 C.3       1 PLP1        0.0000
     46 H2X        -1.4900   -9.5240   -1.1850 H         1 PLP1        0.0000
     47 H2Y         0.1270   -9.2860   -1.9540 H         1 PLP1        0.0000
     48 C23        -3.5390  -10.2310    2.4760 C.3       1 PLP1        0.0000
     49 H3R        -3.0380  -10.7410    1.6210 H         1 PLP1        0.0000
     50 H3S        -4.5620   -9.9450    2.1410 H         1 PLP1        0.0000
     51 C24        -3.6750  -11.2420    3.6290 C.3       1 PLP1        0.0000
     52 H4R        -4.1890  -10.7550    4.4880 H         1 PLP1        0.0000
     53 H4S        -2.6610  -11.5510    3.9700 H         1 PLP1        0.0000
     54 C25        -4.4670  -12.4970    3.2190 C.3       1 PLP1        0.0000
     55 H5R        -3.9580  -12.9790    2.3540 H         1 PLP1        0.0000
     56 H5S        -5.4830  -12.1900    2.8830 H         1 PLP1        0.0000
     57 C26        -4.6130  -13.5370    4.3430 C.3       1 PLP1        0.0000
     58 H6R        -5.1360  -13.0710    5.2080 H         1 PLP1        0.0000
     59 H6S        -3.6020  -13.8490    4.6860 H         1 PLP1        0.0000
     60 C27        -5.3970  -14.7850    3.9000 C.3       1 PLP1        0.0000
     61 H7R        -4.8870  -15.2350    3.0190 H         1 PLP1        0.0000
     62 H7S        -6.4170  -14.4710    3.5800 H         1 PLP1        0.0000
     63 C28        -5.5110  -15.8360    5.0210 C.3       1 PLP1        0.0000
     64 H8R        -5.9790  -15.3380    5.8990 H         1 PLP1        0.0000
     65 H8S        -4.4870  -16.1350    5.3300 H         1 PLP1        0.0000
     66 C29        -6.2950  -17.0620    4.5910 C.2       1 PLP1        0.0000
     67 H91        -5.8790  -17.5900    3.7160 H         1 PLP1        0.0000
     68 C210       -7.4120  -17.5280    5.1610 C.2       1 PLP1        0.0000
     69 H101       -7.8910  -18.4320    4.7450 H         1 PLP1        0.0000
     70 C211       -8.1250  -16.9350    6.3610 C.3       1 PLP1        0.0000
     71 H11R       -7.3780  -16.5200    7.0740 H         1 PLP1        0.0000
     72 H11S       -8.6440  -17.7440    6.9180 H         1 PLP1        0.0000
     73 C212       -9.1010  -15.8500    5.9830 C.2       1 PLP1        0.0000
     74 H121       -9.1140  -15.5210    4.9340 H         1 PLP1        0.0000
     75 C213       -9.9430  -15.2720    6.8620 C.2       1 PLP1        0.0000
     76 H131       -9.9280  -15.5890    7.9130 H         1 PLP1        0.0000
     77 C214      -10.9230  -14.1890    6.4950 C.3       1 PLP1        0.0000
     78 H14R      -11.6620  -14.5730    5.7580 H         1 PLP1        0.0000
     79 H14S      -10.3980  -13.3260    6.0270 H         1 PLP1        0.0000
     80 C215      -11.6870  -13.6850    7.7320 C.3       1 PLP1        0.0000
     81 H15R      -10.9670  -13.2490    8.4610 H         1 PLP1        0.0000
     82 H15S      -12.2040  -14.5400    8.2250 H         1 PLP1        0.0000
     83 C216      -12.7400  -12.6220    7.3930 C.3       1 PLP1        0.0000
     84 H16R      -13.4740  -13.0480    6.6720 H         1 PLP1        0.0000
     85 H16S      -12.2440  -11.7560    6.9000 H         1 PLP1        0.0000
     86 C217      -13.4850  -12.1360    8.6430 C.3       1 PLP1        0.0000
     87 H17R      -12.7410  -11.7230    9.3620 H         1 PLP1        0.0000
     88 H17S      -13.9700  -13.0120    9.1320 H         1 PLP1        0.0000
     89 C218      -14.5460  -11.0730    8.3530 C.3       1 PLP1        0.0000
     90 H18R      -15.3160  -11.4710    7.6580 H         1 PLP1        0.0000
     91 H18S      -14.0810  -10.1770    7.8870 H         1 PLP1        0.0000
     92 H18T      -15.0470  -10.7610    9.2940 H         1 PLP1        0.0000
     93 C33        -1.5760   -9.0370   -3.3100 C.3       1 PLP1        0.0000
     94 H3X        -0.9810   -8.4650   -4.0580 H         1 PLP1        0.0000
     95 H3Y        -2.5980   -8.5900   -3.2820 H         1 PLP1        0.0000
     96 C34        -1.6930  -10.4970   -3.7600 C.3       1 PLP1        0.0000
     97 H4X        -2.3240  -11.0510   -3.0280 H         1 PLP1        0.0000
     98 H4Y        -0.6820  -10.9620   -3.7570 H         1 PLP1        0.0000
     99 C35        -2.3040  -10.6420   -5.1580 C.3       1 PLP1        0.0000
    100 H5X        -1.6700  -10.0960   -5.8920 H         1 PLP1        0.0000
    101 H5Y        -3.3150  -10.1740   -5.1680 H         1 PLP1        0.0000
    102 C36        -2.4210  -12.1100   -5.5840 C.3       1 PLP1        0.0000
    103 H6X        -3.0690  -12.6490   -4.8570 H         1 PLP1        0.0000
    104 H6Y        -1.4110  -12.5780   -5.5490 H         1 PLP1        0.0000
    105 C37        -2.9990  -12.2770   -6.9940 C.3       1 PLP1        0.0000
    106 H7X        -2.3540  -11.7330   -7.7200 H         1 PLP1        0.0000
    107 H7Y        -4.0130  -11.8210   -7.0320 H         1 PLP1        0.0000
    108 C38        -3.0890  -13.7500   -7.4070 C.3       1 PLP1        0.0000
    109 H8X        -3.7430  -14.2920   -6.6870 H         1 PLP1        0.0000
    110 H8Y        -2.0750  -14.2060   -7.3500 H         1 PLP1        0.0000
    111 C39        -3.6410  -13.9340   -8.8250 C.3       1 PLP1        0.0000
    112 H9X        -2.9900  -13.3870   -9.5430 H         1 PLP1        0.0000
    113 H9Y        -4.6590  -13.4900   -8.8830 H         1 PLP1        0.0000
    114 C310       -3.7090  -15.4100   -9.2330 C.3       1 PLP1        0.0000
    115 H10X       -4.3670  -15.9570   -8.5200 H         1 PLP1        0.0000
    116 H10Y       -2.6900  -15.8550   -9.1620 H         1 PLP1        0.0000
    117 C311       -4.2410  -15.6010  -10.6570 C.3       1 PLP1        0.0000
    118 H11X       -3.5850  -15.0500  -11.3680 H         1 PLP1        0.0000
    119 H11Y       -5.2620  -15.1640  -10.7290 H         1 PLP1        0.0000
    120 C312       -4.2940  -17.0780  -11.0660 C.3       1 PLP1        0.0000
    121 H12X       -4.9540  -17.6290  -10.3580 H         1 PLP1        0.0000
    122 H12Y       -3.2730  -17.5150  -10.9860 H         1 PLP1        0.0000
    123 C313       -4.8140  -17.2730  -12.4950 C.3       1 PLP1        0.0000
    124 H13X       -4.1550  -16.7190  -13.2010 H         1 PLP1        0.0000
    125 H13Y       -5.8360  -16.8400  -12.5740 H         1 PLP1        0.0000
    126 C314       -4.8590  -18.7500  -12.9030 C.3       1 PLP1        0.0000
    127 H14X       -5.5200  -19.3040  -12.1990 H         1 PLP1        0.0000
    128 H14Y       -3.8370  -19.1830  -12.8190 H         1 PLP1        0.0000
    129 C315       -5.3720  -18.9510  -14.3340 C.3       1 PLP1        0.0000
    130 H15X       -4.7110  -18.3900  -15.0340 H         1 PLP1        0.0000
    131 H15Y       -6.3930  -18.5120  -14.4140 H         1 PLP1        0.0000
    132 C316       -5.4210  -20.4210  -14.7560 C.3       1 PLP1        0.0000
    133 H16X       -6.0940  -20.9950  -14.0840 H         1 PLP1        0.0000
    134 H16Y       -4.4060  -20.8720  -14.7060 H         1 PLP1        0.0000
    135 H16Z       -5.7980  -20.5140  -15.7970 H         1 PLP1        0.0000
@<TRIPOS>BOND
     1  135  132 1 
     2  130  129 1 
     3  132  134 1 
     4  132  129 1 
     5  132  133 1 
     6  131  129 1 
     7  129  126 1 
     8  124  123 1 
     9  126  128 1 
    10  126  123 1 
    11  126  127 1 
    12  125  123 1 
    13  123  120 1 
    14  118  117 1 
    15  120  122 1 
    16  120  117 1 
    17  120  121 1 
    18  119  117 1 
    19  117  114 1 
    20  112  111 1 
    21  114  116 1 
    22  114  111 1 
    23  114  115 1 
    24  113  111 1 
    25  111  108 1 
    26  106  105 1 
    27  108  110 1 
    28  108  105 1 
    29  108  109 1 
    30  107  105 1 
    31  105  102 1 
    32  100   99 1 
    33  102  104 1 
    34  102   99 1 
    35  102  103 1 
    36  101   99 1 
    37   99   96 1 
    38   94   93 1 
    39   96   98 1 
    40   96   93 1 
    41   96   97 1 
    42   93   95 1 
    43   93   45 1 
    44   44   43 2 
    45   47   45 1 
    46   45   43 1 
    47   45   46 1 
    48   43   42 1 
    49    6    5 1 
    50    2    1 1 
    51   22   21 1 
    52    7    5 1 
    53    7    8 1 
    54   41   39 1 
    55    5    1 1 
    56    5    9 1 
    57   42   39 1 
    58    1   21 1 
    59    1    3 1 
    60   26   21 1 
    61   26   23 1 
    62   21   17 1 
    63   32   31 1 
    64   14   13 1 
    65   39   31 1 
    66   39   40 1 
    67   35   34 2 
    68   11    9 1 
    69   11   12 1 
    70   27   23 1 
    71   27   28 1 
    72    9   13 1 
    73    9   10 1 
    74   31   28 1 
    75   31   33 1 
    76    3    4 1 
    77   13   17 1 
    78   13   15 1 
    79   17   19 1 
    80   17   18 1 
    81   19   20 1 
    82   23   25 2 
    83   23   24 1 
    84   49   48 1 
    85   34   33 1 
    86   34   36 1 
    87   28   29 1 
    88   28   30 1 
    89   50   48 1 
    90   15   16 1 
    91   55   54 1 
    92   48   36 1 
    93   48   51 1 
    94   36   38 1 
    95   36   37 1 
    96   56   54 1 
    97   61   60 1 
    98   54   51 1 
    99   54   57 1 
   100   62   60 1 
   101   51   53 1 
   102   51   52 1 
   103   67   66 1 
   104   60   57 1 
   105   60   63 1 
   106   57   59 1 
   107   57   58 1 
   108   66   63 1 
   109   66   68 2 
   110   69   68 1 
   111   74   73 1 
   112   63   65 1 
   113   63   64 1 
   114   68   70 1 
   115   78   77 1 
   116   73   70 1 
   117   73   75 2 
   118   79   77 1 
   119   70   72 1 
   120   70   71 1 
   121   77   75 1 
   122   77   80 1 
   123   84   83 1 
   124   75   76 1 
   125   85   83 1 
   126   83   80 1 
   127   83   86 1 
   128   90   89 1 
   129   80   82 1 
   130   80   81 1 
   131   91   89 1 
   132   89   86 1 
   133   89   92 1 
   134   86   88 1 
   135   86   87 1 
