@<TRIPOS>MOLECULE
C:\Users\Praveer\PycharmProjects\pdb_to_mol2_converter\data\pdb\plpi24.pdb
  142   142     0     0     0
SMALL
GASTEIGER

@<TRIPOS>ATOM
      1 C12         1.7020    0.2110    0.4050 C.3       1 PLP1        0.0000
      2 H2          2.2250   -0.4930   -0.2910 H         1 PLP1        0.0000
      3 O2          2.0580   -0.1950    1.7310 O.3       1 PLP1        0.0000
      4 HO2         1.2770   -0.6240    2.1390 H         1 PLP1        0.0000
      5 C13         2.2170    1.5980    0.1060 C.3       1 PLP1        0.0000
      6 H3          2.0020    1.8030   -0.9740 H         1 PLP1        0.0000
      7 O3          3.6340    1.6010    0.3020 O.3       1 PLP1        0.0000
      8 HO3         3.7160    1.2070    1.1800 H         1 PLP1        0.0000
      9 C14         1.5140    2.6680    0.9710 C.3       1 PLP1        0.0000
     10 H4          1.9670    2.4930    1.9840 H         1 PLP1        0.0000
     11 O4          1.7970    4.0420    0.6870 O.3       1 PLP1        0.0000
     12 P4          2.3890    4.7210   -0.6760 P.3       1 PLP1        0.0000
     13 OP42        3.9040    4.2400   -0.5090 O.3       1 PLP1        0.0000
     14 HP42        3.8650    3.2950   -0.2760 H         1 PLP1        0.0000
     15 OP43        1.8310    4.0590   -1.9240 O.2       1 PLP1        0.0000
     16 OP44        2.3620    6.2450   -0.6090 O.3       1 PLP1        0.0000
     17 C15        -0.0070    2.4560    1.2580 C.3       1 PLP1        0.0000
     18 H5         -0.4910    3.1370    0.5080 H         1 PLP1        0.0000
     19 O5         -0.3690    2.9250    2.5730 O.3       1 PLP1        0.0000
     20 P5         -1.8970    3.4730    2.9710 P.3       1 PLP1        0.0000
     21 OP52       -2.1810    4.7000    2.1110 O.2       1 PLP1        0.0000
     22 OP53       -2.8290    2.3040    2.6610 O.3       1 PLP1        0.0000
     23 OP54       -1.8650    3.7990    4.4660 O.3       1 PLP1        0.0000
     24 C16        -0.6020    1.0500    0.9730 C.3       1 PLP1        0.0000
     25 H6         -0.6550    0.5440    1.9700 H         1 PLP1        0.0000
     26 O6         -1.9450    1.1450    0.5260 O.3       1 PLP1        0.0000
     27 HO6        -2.4000    1.6000    1.2850 H         1 PLP1        0.0000
     28 C11         0.2210    0.1010    0.1090 C.3       1 PLP1        0.0000
     29 H1          0.0970    0.5330   -0.9160 H         1 PLP1        0.0000
     30 P          -0.0470   -2.4820    1.0670 P.3       1 PLP1        0.0000
     31 O13         0.1310   -1.9590    2.4390 O.3       1 PLP1        0.0000
     32 O14         1.0180   -3.3860    0.5760 O.2       1 PLP1        0.0000
     33 O12        -0.2550   -1.2520   -0.0040 O.3       1 PLP1        0.0000
     34 O11        -1.4050   -3.3090    1.0240 O.3       1 PLP1        0.0000
     35 C1         -1.6240   -4.3760    1.9570 C.3       1 PLP1        0.0000
     36 HA         -2.5530   -4.1630    2.5310 H         1 PLP1        0.0000
     37 HB         -0.8000   -4.4930    2.7040 H         1 PLP1        0.0000
     38 C2         -1.7710   -5.7270    1.2140 C.3       1 PLP1        0.0000
     39 HS         -2.6280   -5.6120    0.5060 H         1 PLP1        0.0000
     40 O21        -2.0120   -6.7470    2.2080 O.3       1 PLP1        0.0000
     41 C21        -2.7010   -7.7910    1.7780 C.2       1 PLP1        0.0000
     42 O22        -3.2210   -7.9130    0.6900 O.2       1 PLP1        0.0000
     43 C22        -2.7560   -8.8440    2.8920 C.3       1 PLP1        0.0000
     44 H2R        -3.2500   -8.3810    3.7700 H         1 PLP1        0.0000
     45 H2S        -1.7180   -9.1150    3.1710 H         1 PLP1        0.0000
     46 C3         -0.4850   -6.0450    0.3880 C.3       1 PLP1        0.0000
     47 HX          0.3760   -5.9740    1.0930 H         1 PLP1        0.0000
     48 HY         -0.3350   -5.2410   -0.3710 H         1 PLP1        0.0000
     49 O31        -0.4920   -7.3660   -0.2000 O.3       1 PLP1        0.0000
     50 C31        -1.0640   -7.4320   -1.3980 C.2       1 PLP1        0.0000
     51 O32        -1.5150   -6.4990   -2.0340 O.2       1 PLP1        0.0000
     52 C32        -1.0540   -8.8850   -1.8650 C.3       1 PLP1        0.0000
     53 H2X        -1.6710   -9.4600   -1.1440 H         1 PLP1        0.0000
     54 H2Y        -0.0090   -9.2550   -1.8270 H         1 PLP1        0.0000
     55 C23        -3.5300  -10.1130    2.4620 C.3       1 PLP1        0.0000
     56 H3R        -3.0170  -10.5880    1.5940 H         1 PLP1        0.0000
     57 H3S        -4.5560   -9.8340    2.1290 H         1 PLP1        0.0000
     58 C24        -3.6490  -11.1470    3.5930 C.3       1 PLP1        0.0000
     59 H4R        -4.1640  -10.6770    4.4610 H         1 PLP1        0.0000
     60 H4S        -2.6290  -11.4440    3.9250 H         1 PLP1        0.0000
     61 C25        -4.4290  -12.4040    3.1720 C.3       1 PLP1        0.0000
     62 H5R        -3.9090  -12.8800    2.3100 H         1 PLP1        0.0000
     63 H5S        -5.4440  -12.1020    2.8290 H         1 PLP1        0.0000
     64 C26        -4.5760  -13.4400    4.2990 C.3       1 PLP1        0.0000
     65 H6R        -5.1010  -12.9720    5.1610 H         1 PLP1        0.0000
     66 H6S        -3.5650  -13.7500    4.6460 H         1 PLP1        0.0000
     67 C27        -5.3580  -14.6920    3.8630 C.3       1 PLP1        0.0000
     68 H7R        -4.8420  -15.1490    2.9890 H         1 PLP1        0.0000
     69 H7S        -6.3750  -14.3810    3.5330 H         1 PLP1        0.0000
     70 C28        -5.4850  -15.7330    4.9920 C.3       1 PLP1        0.0000
     71 H8R        -5.9760  -15.2340    5.8580 H         1 PLP1        0.0000
     72 H8S        -4.4620  -16.0190    5.3250 H         1 PLP1        0.0000
     73 C29        -6.2420  -16.9610    4.5450 C.2       1 PLP1        0.0000
     74 H91        -5.8130  -17.4730    3.6690 H         1 PLP1        0.0000
     75 C210       -7.3650  -17.4560    5.1010 C.2       1 PLP1        0.0000
     76 H101       -7.8190  -18.3590    4.6610 H         1 PLP1        0.0000
     77 C211       -8.0920  -16.9040    6.3060 C.3       1 PLP1        0.0000
     78 H11R       -7.3560  -16.4860    7.0300 H         1 PLP1        0.0000
     79 H11S       -8.5850  -17.7440    6.8460 H         1 PLP1        0.0000
     80 C212       -9.1090  -15.8410    5.9700 C.2       1 PLP1        0.0000
     81 H121       -9.1700  -15.5240    4.9160 H         1 PLP1        0.0000
     82 C213       -9.9230  -15.2620    6.8710 C.2       1 PLP1        0.0000
     83 H131       -9.8590  -15.5590    7.9300 H         1 PLP1        0.0000
     84 C214      -10.9360  -14.1990    6.5350 C.3       1 PLP1        0.0000
     85 H14R      -11.6850  -14.5930    5.8110 H         1 PLP1        0.0000
     86 H14S      -10.4410  -13.3250    6.0530 H         1 PLP1        0.0000
     87 C215      -11.6920  -13.6960    7.7760 C.3       1 PLP1        0.0000
     88 H15R      -10.9720  -13.2590    8.5050 H         1 PLP1        0.0000
     89 H15S      -12.2080  -14.5480    8.2750 H         1 PLP1        0.0000
     90 C216      -12.7400  -12.6310    7.4220 C.3       1 PLP1        0.0000
     91 H16R      -13.4650  -13.0620    6.6950 H         1 PLP1        0.0000
     92 H16S      -12.2330  -11.7730    6.9250 H         1 PLP1        0.0000
     93 C217      -13.5020  -12.1230    8.6520 C.3       1 PLP1        0.0000
     94 H17R      -12.7690  -11.7020    9.3770 H         1 PLP1        0.0000
     95 H17S      -14.0000  -12.9900    9.1450 H         1 PLP1        0.0000
     96 C218      -14.5530  -11.0600    8.3230 C.3       1 PLP1        0.0000
     97 H18R      -15.3120  -11.4660    7.6200 H         1 PLP1        0.0000
     98 H18S      -14.0760  -10.1740    7.8510 H         1 PLP1        0.0000
     99 H18T      -15.0720  -10.7290    9.2480 H         1 PLP1        0.0000
    100 C33        -1.6280   -9.0380   -3.2900 C.3       1 PLP1        0.0000
    101 H3X        -1.0010   -8.4710   -4.0150 H         1 PLP1        0.0000
    102 H3Y        -2.6540   -8.6020   -3.3240 H         1 PLP1        0.0000
    103 C34        -1.7070  -10.5020   -3.7380 C.3       1 PLP1        0.0000
    104 H4X        -2.3390  -11.0700   -3.0190 H         1 PLP1        0.0000
    105 H4Y        -0.6880  -10.9510   -3.7230 H         1 PLP1        0.0000
    106 C35        -2.2990  -10.6510   -5.1440 C.3       1 PLP1        0.0000
    107 H5X        -1.6600  -10.1040   -5.8730 H         1 PLP1        0.0000
    108 H5Y        -3.3110  -10.1860   -5.1670 H         1 PLP1        0.0000
    109 C36        -2.4120  -12.1180   -5.5710 C.3       1 PLP1        0.0000
    110 H6X        -3.0600  -12.6600   -4.8450 H         1 PLP1        0.0000
    111 H6Y        -1.4020  -12.5860   -5.5380 H         1 PLP1        0.0000
    112 C37        -2.9930  -12.2780   -6.9800 C.3       1 PLP1        0.0000
    113 H7X        -2.3470  -11.7320   -7.7040 H         1 PLP1        0.0000
    114 H7Y        -4.0060  -11.8170   -7.0150 H         1 PLP1        0.0000
    115 C38        -3.0890  -13.7490   -7.3990 C.3       1 PLP1        0.0000
    116 H8X        -3.7450  -14.2900   -6.6800 H         1 PLP1        0.0000
    117 H8Y        -2.0760  -14.2070   -7.3440 H         1 PLP1        0.0000
    118 C39        -3.6410  -13.9270   -8.8170 C.3       1 PLP1        0.0000
    119 H9X        -2.9890  -13.3790   -9.5340 H         1 PLP1        0.0000
    120 H9Y        -4.6590  -13.4800   -8.8750 H         1 PLP1        0.0000
    121 C310       -3.7110  -15.4030   -9.2270 C.3       1 PLP1        0.0000
    122 H10X       -4.3700  -15.9480   -8.5150 H         1 PLP1        0.0000
    123 H10Y       -2.6930  -15.8470   -9.1530 H         1 PLP1        0.0000
    124 C311       -4.2400  -15.5960  -10.6520 C.3       1 PLP1        0.0000
    125 H11X       -3.5820  -15.0450  -11.3620 H         1 PLP1        0.0000
    126 H11Y       -5.2600  -15.1590  -10.7270 H         1 PLP1        0.0000
    127 C312       -4.2920  -17.0730  -11.0600 C.3       1 PLP1        0.0000
    128 H12X       -4.9520  -17.6240  -10.3530 H         1 PLP1        0.0000
    129 H12Y       -3.2710  -17.5100  -10.9790 H         1 PLP1        0.0000
    130 C313       -4.8090  -17.2710  -12.4900 C.3       1 PLP1        0.0000
    131 H13X       -4.1500  -16.7170  -13.1960 H         1 PLP1        0.0000
    132 H13Y       -5.8320  -16.8380  -12.5710 H         1 PLP1        0.0000
    133 C314       -4.8550  -18.7490  -12.8990 C.3       1 PLP1        0.0000
    134 H14X       -5.5150  -19.3030  -12.1940 H         1 PLP1        0.0000
    135 H14Y       -3.8330  -19.1820  -12.8160 H         1 PLP1        0.0000
    136 C315       -5.3690  -18.9490  -14.3300 C.3       1 PLP1        0.0000
    137 H15X       -4.7090  -18.3880  -15.0300 H         1 PLP1        0.0000
    138 H15Y       -6.3900  -18.5100  -14.4090 H         1 PLP1        0.0000
    139 C316       -5.4190  -20.4190  -14.7530 C.3       1 PLP1        0.0000
    140 H16X       -6.0910  -20.9940  -14.0810 H         1 PLP1        0.0000
    141 H16Y       -4.4050  -20.8710  -14.7050 H         1 PLP1        0.0000
    142 H16Z       -5.7970  -20.5130  -15.7940 H         1 PLP1        0.0000
@<TRIPOS>BOND
     1  142  139 1 
     2  137  136 1 
     3  139  141 1 
     4  139  136 1 
     5  139  140 1 
     6  138  136 1 
     7  136  133 1 
     8  131  130 1 
     9  133  135 1 
    10  133  130 1 
    11  133  134 1 
    12  132  130 1 
    13  130  127 1 
    14  125  124 1 
    15  127  129 1 
    16  127  124 1 
    17  127  128 1 
    18  126  124 1 
    19  124  121 1 
    20  119  118 1 
    21  121  123 1 
    22  121  118 1 
    23  121  122 1 
    24  120  118 1 
    25  118  115 1 
    26  113  112 1 
    27  115  117 1 
    28  115  112 1 
    29  115  116 1 
    30  114  112 1 
    31  112  109 1 
    32  107  106 1 
    33  109  111 1 
    34  109  106 1 
    35  109  110 1 
    36  108  106 1 
    37  106  103 1 
    38  101  100 1 
    39  103  105 1 
    40  103  100 1 
    41  103  104 1 
    42  102  100 1 
    43  100   52 1 
    44   51   50 2 
    45   15   12 2 
    46   52   54 1 
    47   52   50 1 
    48   52   53 1 
    49   50   49 1 
    50    6    5 1 
    51   29   28 1 
    52   12   16 1 
    53   12   13 1 
    54   12   11 1 
    55   13   14 1 
    56   48   46 1 
    57    2    1 1 
    58   49   46 1 
    59   33   28 1 
    60   33   30 1 
    61    5    7 1 
    62    5    1 1 
    63    5    9 1 
    64   28    1 1 
    65   28   24 1 
    66    7    8 1 
    67   46   47 1 
    68   46   38 1 
    69    1    3 1 
    70   39   38 1 
    71   18   17 1 
    72   26   24 1 
    73   26   27 1 
    74   32   30 2 
    75   11    9 1 
    76   42   41 2 
    77    9   17 1 
    78    9   10 1 
    79   24   17 1 
    80   24   25 1 
    81   34   30 1 
    82   34   35 1 
    83   30   31 1 
    84   38   35 1 
    85   38   40 1 
    86   17   19 1 
    87   56   55 1 
    88    3    4 1 
    89   41   40 1 
    90   41   43 1 
    91   35   36 1 
    92   35   37 1 
    93   21   20 2 
    94   57   55 1 
    95   62   61 1 
    96   55   43 1 
    97   55   58 1 
    98   19   20 1 
    99   22   20 1 
   100   63   61 1 
   101   43   45 1 
   102   43   44 1 
   103   20   23 1 
   104   68   67 1 
   105   61   58 1 
   106   61   64 1 
   107   69   67 1 
   108   58   60 1 
   109   58   59 1 
   110   74   73 1 
   111   67   64 1 
   112   67   70 1 
   113   64   66 1 
   114   64   65 1 
   115   73   70 1 
   116   73   75 2 
   117   76   75 1 
   118   81   80 1 
   119   70   72 1 
   120   70   71 1 
   121   75   77 1 
   122   85   84 1 
   123   80   77 1 
   124   80   82 2 
   125   86   84 1 
   126   77   79 1 
   127   77   78 1 
   128   84   82 1 
   129   84   87 1 
   130   91   90 1 
   131   82   83 1 
   132   92   90 1 
   133   90   87 1 
   134   90   93 1 
   135   97   96 1 
   136   87   89 1 
   137   87   88 1 
   138   98   96 1 
   139   96   93 1 
   140   96   99 1 
   141   93   95 1 
   142   93   94 1 
