@<TRIPOS>MOLECULE
C:\Users\Praveer\PycharmProjects\pdb_to_mol2_converter\data\pdb\plpi15.pdb
  138   138     0     0     0
SMALL
GASTEIGER

@<TRIPOS>ATOM
      1 C12         1.6010    0.2220    0.0540 C.3       1 PLP1        0.0000
      2 H2          1.9170   -0.2880   -0.8880 H         1 PLP1        0.0000
      3 O2          2.3550   -0.3770    1.1080 O.3       1 PLP1        0.0000
      4 HO2         2.0840   -1.3120    1.1650 H         1 PLP1        0.0000
      5 C13         1.9400    1.6940   -0.0850 C.3       1 PLP1        0.0000
      6 H3          1.3970    2.0830   -0.9780 H         1 PLP1        0.0000
      7 O3          3.3400    1.8590   -0.3430 O.3       1 PLP1        0.0000
      8 HO3         3.7710    1.4210    0.3940 H         1 PLP1        0.0000
      9 C14         1.4420    2.5020    1.1100 C.3       1 PLP1        0.0000
     10 H4          1.9800    2.1310    2.0160 H         1 PLP1        0.0000
     11 O4          1.6980    3.9010    0.9930 O.3       1 PLP1        0.0000
     12 HO4         0.8770    4.3480    1.3270 H         1 PLP1        0.0000
     13 C15        -0.0390    2.3210    1.3390 C.3       1 PLP1        0.0000
     14 H5         -0.4840    2.9030    0.4750 H         1 PLP1        0.0000
     15 O5         -0.4080    2.8350    2.6280 O.3       1 PLP1        0.0000
     16 P5         -1.4590    4.1160    2.6270 P.3       1 PLP1        0.0000
     17 OP52       -0.6620    5.1670    1.8550 O.2       1 PLP1        0.0000
     18 OP53       -2.6570    3.5750    1.8900 O.3       1 PLP1        0.0000
     19 OP54       -1.7130    4.4790    4.0850 O.3       1 PLP1        0.0000
     20 C16        -0.6430    0.9390    1.1660 C.3       1 PLP1        0.0000
     21 H6         -0.5810    0.4520    2.1710 H         1 PLP1        0.0000
     22 O6         -2.0270    1.0870    0.8660 O.3       1 PLP1        0.0000
     23 HO6        -2.2950    1.9460    1.2720 H         1 PLP1        0.0000
     24 C11         0.0940    0.0100    0.1990 C.3       1 PLP1        0.0000
     25 H1         -0.2720    0.3960   -0.7910 H         1 PLP1        0.0000
     26 P          -0.1380   -2.4560    1.3790 P.3       1 PLP1        0.0000
     27 O13        -0.4970   -1.9420    2.7130 O.3       1 PLP1        0.0000
     28 O14         1.2130   -3.0440    1.2360 O.2       1 PLP1        0.0000
     29 O12        -0.3230   -1.3530    0.1800 O.3       1 PLP1        0.0000
     30 O11        -1.2150   -3.5370    0.9650 O.3       1 PLP1        0.0000
     31 C1         -1.6860   -4.5160    1.8870 C.3       1 PLP1        0.0000
     32 HA         -2.7010   -4.2380    2.2450 H         1 PLP1        0.0000
     33 HB         -1.0240   -4.6270    2.7810 H         1 PLP1        0.0000
     34 C2         -1.7420   -5.8770    1.1700 C.3       1 PLP1        0.0000
     35 HS         -2.5530   -5.8170    0.4040 H         1 PLP1        0.0000
     36 O21        -1.9910   -6.8850    2.1710 O.3       1 PLP1        0.0000
     37 C21        -2.6450   -7.9490    1.7380 C.2       1 PLP1        0.0000
     38 O22        -3.1010   -8.1190    0.6370 O.2       1 PLP1        0.0000
     39 C22        -2.7430   -8.9530    2.8920 C.3       1 PLP1        0.0000
     40 H2R        -3.2400   -8.4520    3.7470 H         1 PLP1        0.0000
     41 H2S        -1.7130   -9.2350    3.1920 H         1 PLP1        0.0000
     42 C3         -0.3900   -6.1370    0.4390 C.3       1 PLP1        0.0000
     43 HX          0.4070   -6.0970    1.2140 H         1 PLP1        0.0000
     44 HY         -0.1780   -5.3010   -0.2680 H         1 PLP1        0.0000
     45 O31        -0.3490   -7.4240   -0.2140 O.3       1 PLP1        0.0000
     46 C31        -0.9390   -7.4440   -1.4080 C.2       1 PLP1        0.0000
     47 O32        -1.3820   -6.4960   -2.0060 O.2       1 PLP1        0.0000
     48 C32        -0.9620   -8.8920   -1.8950 C.3       1 PLP1        0.0000
     49 H2X        -1.5600   -9.4760   -1.1640 H         1 PLP1        0.0000
     50 H2Y         0.0780   -9.2750   -1.8980 H         1 PLP1        0.0000
     51 C23        -3.5380  -10.2070    2.4750 C.3       1 PLP1        0.0000
     52 H3R        -3.0340  -10.7040    1.6140 H         1 PLP1        0.0000
     53 H3S        -4.5590   -9.9120    2.1380 H         1 PLP1        0.0000
     54 C24        -3.6730  -11.2170    3.6190 C.3       1 PLP1        0.0000
     55 H4R        -4.1920  -10.7340    4.4780 H         1 PLP1        0.0000
     56 H4S        -2.6590  -11.5220    3.9630 H         1 PLP1        0.0000
     57 C25        -4.4570  -12.4630    3.1940 C.3       1 PLP1        0.0000
     58 H5R        -3.9400  -12.9400    2.3310 H         1 PLP1        0.0000
     59 H5S        -5.4720  -12.1580    2.8520 H         1 PLP1        0.0000
     60 C26        -4.5950  -13.4890    4.3240 C.3       1 PLP1        0.0000
     61 H6R        -5.1200  -13.0170    5.1850 H         1 PLP1        0.0000
     62 H6S        -3.5810  -13.7900    4.6700 H         1 PLP1        0.0000
     63 C27        -5.3710  -14.7370    3.8820 C.3       1 PLP1        0.0000
     64 H7R        -4.8500  -15.1870    3.0070 H         1 PLP1        0.0000
     65 H7S        -6.3870  -14.4230    3.5490 H         1 PLP1        0.0000
     66 C28        -5.4960  -15.7810    5.0060 C.3       1 PLP1        0.0000
     67 H8R        -5.9680  -15.2800    5.8810 H         1 PLP1        0.0000
     68 H8S        -4.4720  -16.0810    5.3210 H         1 PLP1        0.0000
     69 C29        -6.2710  -16.9980    4.5610 C.2       1 PLP1        0.0000
     70 H91        -5.8650  -17.5030    3.6720 H         1 PLP1        0.0000
     71 C210       -7.3920  -17.4860    5.1290 C.2       1 PLP1        0.0000
     72 H101       -7.8570  -18.3840    4.6930 H         1 PLP1        0.0000
     73 C211       -8.1080  -16.9260    6.3350 C.3       1 PLP1        0.0000
     74 H11R       -7.3710  -16.5130    7.0600 H         1 PLP1        0.0000
     75 H11S       -8.6170  -17.7570    6.8740 H         1 PLP1        0.0000
     76 C212       -9.1090  -15.8540    5.9750 C.2       1 PLP1        0.0000
     77 H121       -9.1570  -15.5490    4.9180 H         1 PLP1        0.0000
     78 C213       -9.9260  -15.2640    6.8640 C.2       1 PLP1        0.0000
     79 H131       -9.8770  -15.5590    7.9220 H         1 PLP1        0.0000
     80 C214      -10.9300  -14.1950    6.5140 C.3       1 PLP1        0.0000
     81 H14R      -11.6750  -14.5880    5.7850 H         1 PLP1        0.0000
     82 H14S      -10.4260  -13.3270    6.0340 H         1 PLP1        0.0000
     83 C215      -11.6870  -13.6950    7.7590 C.3       1 PLP1        0.0000
     84 H15R      -10.9620  -13.2630    8.4850 H         1 PLP1        0.0000
     85 H15S      -12.1970  -14.5530    8.2540 H         1 PLP1        0.0000
     86 C216      -12.7410  -12.6300    7.4220 C.3       1 PLP1        0.0000
     87 H16R      -13.4720  -13.0580    6.7000 H         1 PLP1        0.0000
     88 H16S      -12.2420  -11.7670    6.9280 H         1 PLP1        0.0000
     89 C217      -13.5000  -12.1270    8.6580 C.3       1 PLP1        0.0000
     90 H17R      -12.7670  -11.7050    9.3830 H         1 PLP1        0.0000
     91 H17S      -13.9970  -12.9920    9.1520 H         1 PLP1        0.0000
     92 C218      -14.5510  -11.0630    8.3300 C.3       1 PLP1        0.0000
     93 H18R      -15.3080  -11.4700    7.6250 H         1 PLP1        0.0000
     94 H18S      -14.0730  -10.1780    7.8560 H         1 PLP1        0.0000
     95 H18T      -15.0730  -10.7290    9.2520 H         1 PLP1        0.0000
     96 C33        -1.5880   -9.0170   -3.2990 C.3       1 PLP1        0.0000
     97 H3X        -0.9750   -8.4530   -4.0370 H         1 PLP1        0.0000
     98 H3Y        -2.6080   -8.5670   -3.2950 H         1 PLP1        0.0000
     99 C34        -1.6990  -10.4800   -3.7400 C.3       1 PLP1        0.0000
    100 H4X        -2.3330  -11.0310   -3.0100 H         1 PLP1        0.0000
    101 H4Y        -0.6870  -10.9430   -3.7270 H         1 PLP1        0.0000
    102 C35        -2.3020  -10.6290   -5.1420 C.3       1 PLP1        0.0000
    103 H5X        -1.6650  -10.0820   -5.8730 H         1 PLP1        0.0000
    104 H5Y        -3.3120  -10.1610   -5.1570 H         1 PLP1        0.0000
    105 C36        -2.4170  -12.0970   -5.5680 C.3       1 PLP1        0.0000
    106 H6X        -3.0660  -12.6370   -4.8420 H         1 PLP1        0.0000
    107 H6Y        -1.4070  -12.5640   -5.5330 H         1 PLP1        0.0000
    108 C37        -2.9950  -12.2660   -6.9790 C.3       1 PLP1        0.0000
    109 H7X        -2.3500  -11.7230   -7.7050 H         1 PLP1        0.0000
    110 H7Y        -4.0090  -11.8090   -7.0180 H         1 PLP1        0.0000
    111 C38        -3.0870  -13.7400   -7.3930 C.3       1 PLP1        0.0000
    112 H8X        -3.7420  -14.2810   -6.6730 H         1 PLP1        0.0000
    113 H8Y        -2.0730  -14.1960   -7.3360 H         1 PLP1        0.0000
    114 C39        -3.6380  -13.9250   -8.8110 C.3       1 PLP1        0.0000
    115 H9X        -2.9860  -13.3780   -9.5300 H         1 PLP1        0.0000
    116 H9Y        -4.6560  -13.4790   -8.8710 H         1 PLP1        0.0000
    117 C310       -3.7070  -15.4010   -9.2210 C.3       1 PLP1        0.0000
    118 H10X       -4.3670  -15.9470   -8.5090 H         1 PLP1        0.0000
    119 H10Y       -2.6900  -15.8460   -9.1480 H         1 PLP1        0.0000
    120 C311       -4.2370  -15.5930  -10.6460 C.3       1 PLP1        0.0000
    121 H11X       -3.5800  -15.0420  -11.3570 H         1 PLP1        0.0000
    122 H11Y       -5.2580  -15.1560  -10.7200 H         1 PLP1        0.0000
    123 C312       -4.2900  -17.0700  -11.0550 C.3       1 PLP1        0.0000
    124 H12X       -4.9510  -17.6210  -10.3480 H         1 PLP1        0.0000
    125 H12Y       -3.2690  -17.5070  -10.9740 H         1 PLP1        0.0000
    126 C313       -4.8080  -17.2660  -12.4850 C.3       1 PLP1        0.0000
    127 H13X       -4.1480  -16.7120  -13.1900 H         1 PLP1        0.0000
    128 H13Y       -5.8300  -16.8320  -12.5650 H         1 PLP1        0.0000
    129 C314       -4.8540  -18.7440  -12.8940 C.3       1 PLP1        0.0000
    130 H14X       -5.5130  -19.2970  -12.1890 H         1 PLP1        0.0000
    131 H14Y       -3.8310  -19.1770  -12.8110 H         1 PLP1        0.0000
    132 C315       -5.3680  -18.9440  -14.3240 C.3       1 PLP1        0.0000
    133 H15X       -4.7080  -18.3820  -15.0240 H         1 PLP1        0.0000
    134 H15Y       -6.3880  -18.5040  -14.4030 H         1 PLP1        0.0000
    135 C316       -5.4170  -20.4130  -14.7480 C.3       1 PLP1        0.0000
    136 H16X       -6.0900  -20.9880  -14.0750 H         1 PLP1        0.0000
    137 H16Y       -4.4030  -20.8650  -14.6990 H         1 PLP1        0.0000
    138 H16Z       -5.7960  -20.5080  -15.7880 H         1 PLP1        0.0000
@<TRIPOS>BOND
     1  138  135 1 
     2  133  132 1 
     3  135  137 1 
     4  135  132 1 
     5  135  136 1 
     6  134  132 1 
     7  132  129 1 
     8  127  126 1 
     9  129  131 1 
    10  129  126 1 
    11  129  130 1 
    12  128  126 1 
    13  126  123 1 
    14  121  120 1 
    15  123  125 1 
    16  123  120 1 
    17  123  124 1 
    18  122  120 1 
    19  120  117 1 
    20  115  114 1 
    21  117  119 1 
    22  117  114 1 
    23  117  118 1 
    24  116  114 1 
    25  114  111 1 
    26  109  108 1 
    27  111  113 1 
    28  111  108 1 
    29  111  112 1 
    30  110  108 1 
    31  108  105 1 
    32  103  102 1 
    33  105  107 1 
    34  105  102 1 
    35  105  106 1 
    36  104  102 1 
    37  102   99 1 
    38   97   96 1 
    39   99  101 1 
    40   99   96 1 
    41   99  100 1 
    42   96   98 1 
    43   96   48 1 
    44   47   46 2 
    45   50   48 1 
    46   48   46 1 
    47   48   49 1 
    48   46   45 1 
    49    6    5 1 
    50    2    1 1 
    51   25   24 1 
    52    7    5 1 
    53    7    8 1 
    54   44   42 1 
    55   45   42 1 
    56    5    1 1 
    57    5    9 1 
    58    1   24 1 
    59    1    3 1 
    60   29   24 1 
    61   29   26 1 
    62   24   20 1 
    63   35   34 1 
    64   42   34 1 
    65   42   43 1 
    66   14   13 1 
    67   38   37 2 
    68   22   20 1 
    69   22   23 1 
    70   30   26 1 
    71   30   31 1 
    72   11    9 1 
    73   11   12 1 
    74    3    4 1 
    75    9   13 1 
    76    9   10 1 
    77   20   13 1 
    78   20   21 1 
    79   34   31 1 
    80   34   36 1 
    81   28   26 2 
    82   13   15 1 
    83   26   27 1 
    84   52   51 1 
    85   37   36 1 
    86   37   39 1 
    87   17   16 2 
    88   31   32 1 
    89   31   33 1 
    90   18   16 1 
    91   53   51 1 
    92   58   57 1 
    93   51   39 1 
    94   51   54 1 
    95   16   15 1 
    96   16   19 1 
    97   59   57 1 
    98   39   41 1 
    99   39   40 1 
   100   64   63 1 
   101   57   54 1 
   102   57   60 1 
   103   65   63 1 
   104   54   56 1 
   105   54   55 1 
   106   70   69 1 
   107   63   60 1 
   108   63   66 1 
   109   60   62 1 
   110   60   61 1 
   111   69   66 1 
   112   69   71 2 
   113   72   71 1 
   114   77   76 1 
   115   66   68 1 
   116   66   67 1 
   117   71   73 1 
   118   81   80 1 
   119   76   73 1 
   120   76   78 2 
   121   82   80 1 
   122   73   75 1 
   123   73   74 1 
   124   80   78 1 
   125   80   83 1 
   126   87   86 1 
   127   78   79 1 
   128   88   86 1 
   129   86   83 1 
   130   86   89 1 
   131   93   92 1 
   132   83   85 1 
   133   83   84 1 
   134   94   92 1 
   135   92   89 1 
   136   92   95 1 
   137   89   91 1 
   138   89   90 1 
