@<TRIPOS>MOLECULE
C:\Users\Praveer\PycharmProjects\pdb_to_mol2_converter\data\pdb\plpi14.pdb
  138   138     0     0     0
SMALL
GASTEIGER

@<TRIPOS>ATOM
      1 C12         1.6330    0.1540    0.1040 C.3       1 PLP1        0.0000
      2 H2          1.9170   -0.4290   -0.8040 H         1 PLP1        0.0000
      3 O2          2.2790   -0.4690    1.2160 O.3       1 PLP1        0.0000
      4 HO2         1.9730   -1.3950    1.2650 H         1 PLP1        0.0000
      5 C13         2.0980    1.5920   -0.1100 C.3       1 PLP1        0.0000
      6 H3          1.5870    2.0100   -1.0110 H         1 PLP1        0.0000
      7 O3          3.5010    1.6600   -0.3430 O.3       1 PLP1        0.0000
      8 HO3         3.6790    2.5860   -0.1110 H         1 PLP1        0.0000
      9 C14         1.7390    2.4410    1.0990 C.3       1 PLP1        0.0000
     10 H4          2.1890    1.9630    1.9980 H         1 PLP1        0.0000
     11 O4          2.3300    3.7440    0.9850 O.3       1 PLP1        0.0000
     12 P4          1.6480    5.0460    0.2560 P.3       1 PLP1        0.0000
     13 OP42        2.7520    6.0950    0.2070 O.3       1 PLP1        0.0000
     14 OP43        0.4900    5.4210    1.1790 O.3       1 PLP1        0.0000
     15 OP44        1.2060    4.5510   -1.1110 O.2       1 PLP1        0.0000
     16 C15         0.2240    2.4280    1.2750 C.3       1 PLP1        0.0000
     17 H5         -0.2110    2.9120    0.3610 H         1 PLP1        0.0000
     18 O5         -0.1690    3.2120    2.3990 O.3       1 PLP1        0.0000
     19 HO5         0.0790    4.1290    2.0960 H         1 PLP1        0.0000
     20 C16        -0.4160    1.0360    1.3120 C.3       1 PLP1        0.0000
     21 H6         -0.1620    0.5890    2.3020 H         1 PLP1        0.0000
     22 O6         -1.8320    1.1850    1.2410 O.3       1 PLP1        0.0000
     23 HO6        -1.9920    1.9520    1.8010 H         1 PLP1        0.0000
     24 C11         0.1080    0.1140    0.2160 C.3       1 PLP1        0.0000
     25 H1         -0.2440    0.5970   -0.7310 H         1 PLP1        0.0000
     26 P          -0.3440   -2.3070    1.3830 P.3       1 PLP1        0.0000
     27 O13        -0.8630   -1.7980    2.6710 O.3       1 PLP1        0.0000
     28 O14         1.0290   -2.8650    1.3840 O.2       1 PLP1        0.0000
     29 O12        -0.4550   -1.2040    0.1730 O.3       1 PLP1        0.0000
     30 O11        -1.3240   -3.4490    0.8880 O.3       1 PLP1        0.0000
     31 C1         -1.7710   -4.4410    1.8140 C.3       1 PLP1        0.0000
     32 HA         -2.7920   -4.1830    2.1680 H         1 PLP1        0.0000
     33 HB         -1.1100   -4.5310    2.7120 H         1 PLP1        0.0000
     34 C2         -1.7910   -5.8200    1.1210 C.3       1 PLP1        0.0000
     35 HS         -2.5890   -5.7840    0.3410 H         1 PLP1        0.0000
     36 O21        -2.0450   -6.8160    2.1340 O.3       1 PLP1        0.0000
     37 C21        -2.6540   -7.9090    1.7100 C.2       1 PLP1        0.0000
     38 O22        -3.0910   -8.1030    0.5880 O.2       1 PLP1        0.0000
     39 C22        -2.7410   -8.9150    2.8600 C.3       1 PLP1        0.0000
     40 H2R        -3.2350   -8.4120    3.7160 H         1 PLP1        0.0000
     41 H2S        -1.7060   -9.1850    3.1540 H         1 PLP1        0.0000
     42 C3         -0.4230   -6.0800    0.4180 C.3       1 PLP1        0.0000
     43 HX          0.3620   -6.0230    1.2040 H         1 PLP1        0.0000
     44 HY         -0.2090   -5.2490   -0.2950 H         1 PLP1        0.0000
     45 O31        -0.3610   -7.3760   -0.2180 O.3       1 PLP1        0.0000
     46 C31        -0.9250   -7.4220   -1.4210 C.2       1 PLP1        0.0000
     47 O32        -1.3610   -6.4710   -2.0470 O.2       1 PLP1        0.0000
     48 C32        -0.9410   -8.8700   -1.9000 C.3       1 PLP1        0.0000
     49 H2X        -1.5280   -9.4550   -1.1610 H         1 PLP1        0.0000
     50 H2Y         0.1020   -9.2450   -1.9090 H         1 PLP1        0.0000
     51 C23        -3.5290  -10.1850    2.4600 C.3       1 PLP1        0.0000
     52 H3R        -3.0220  -10.6820    1.6020 H         1 PLP1        0.0000
     53 H3S        -4.5510   -9.8960    2.1210 H         1 PLP1        0.0000
     54 C24        -3.6630  -11.1960    3.6090 C.3       1 PLP1        0.0000
     55 H4R        -4.1790  -10.7090    4.4660 H         1 PLP1        0.0000
     56 H4S        -2.6480  -11.4970    3.9510 H         1 PLP1        0.0000
     57 C25        -4.4490  -12.4520    3.1970 C.3       1 PLP1        0.0000
     58 H5R        -3.9340  -12.9310    2.3340 H         1 PLP1        0.0000
     59 H5S        -5.4640  -12.1480    2.8570 H         1 PLP1        0.0000
     60 C26        -4.5920  -13.4850    4.3260 C.3       1 PLP1        0.0000
     61 H6R        -5.1180  -13.0160    5.1880 H         1 PLP1        0.0000
     62 H6S        -3.5790  -13.7900    4.6720 H         1 PLP1        0.0000
     63 C27        -5.3700  -14.7370    3.8860 C.3       1 PLP1        0.0000
     64 H7R        -4.8540  -15.1860    3.0070 H         1 PLP1        0.0000
     65 H7S        -6.3890  -14.4260    3.5600 H         1 PLP1        0.0000
     66 C28        -5.4910  -15.7870    5.0070 C.3       1 PLP1        0.0000
     67 H8R        -5.9720  -15.2920    5.8800 H         1 PLP1        0.0000
     68 H8S        -4.4670  -16.0800    5.3290 H         1 PLP1        0.0000
     69 C29        -6.2560  -17.0120    4.5620 C.2       1 PLP1        0.0000
     70 H91        -5.8290  -17.5330    3.6910 H         1 PLP1        0.0000
     71 C210       -7.3860  -17.4950    5.1190 C.2       1 PLP1        0.0000
     72 H101       -7.8430  -18.3990    4.6870 H         1 PLP1        0.0000
     73 C211       -8.1100  -16.9270    6.3160 C.3       1 PLP1        0.0000
     74 H11R       -7.3730  -16.5100    7.0390 H         1 PLP1        0.0000
     75 H11S       -8.6140  -17.7560    6.8610 H         1 PLP1        0.0000
     76 C212       -9.1170  -15.8540    5.9710 C.2       1 PLP1        0.0000
     77 H121       -9.1650  -15.5360    4.9170 H         1 PLP1        0.0000
     78 C213       -9.9290  -15.2740    6.8680 C.2       1 PLP1        0.0000
     79 H131       -9.8750  -15.5770    7.9250 H         1 PLP1        0.0000
     80 C214      -10.9320  -14.1980    6.5310 C.3       1 PLP1        0.0000
     81 H14R      -11.6780  -14.5840    5.8010 H         1 PLP1        0.0000
     82 H14S      -10.4230  -13.3300    6.0550 H         1 PLP1        0.0000
     83 C215      -11.6920  -13.6910    7.7700 C.3       1 PLP1        0.0000
     84 H15R      -10.9720  -13.2550    8.4990 H         1 PLP1        0.0000
     85 H15S      -12.2080  -14.5430    8.2690 H         1 PLP1        0.0000
     86 C216      -12.7420  -12.6260    7.4170 C.3       1 PLP1        0.0000
     87 H16R      -13.4680  -13.0570    6.6920 H         1 PLP1        0.0000
     88 H16S      -12.2380  -11.7670    6.9210 H         1 PLP1        0.0000
     89 C217      -13.5040  -12.1210    8.6500 C.3       1 PLP1        0.0000
     90 H17R      -12.7690  -11.7010    9.3740 H         1 PLP1        0.0000
     91 H17S      -13.9990  -12.9880    9.1420 H         1 PLP1        0.0000
     92 C218      -14.5580  -11.0570    8.3310 C.3       1 PLP1        0.0000
     93 H18R      -15.3210  -11.4600    7.6310 H         1 PLP1        0.0000
     94 H18S      -14.0860  -10.1670    7.8620 H         1 PLP1        0.0000
     95 H18T      -15.0730  -10.7300    9.2610 H         1 PLP1        0.0000
     96 C33        -1.5790   -9.0110   -3.2990 C.3       1 PLP1        0.0000
     97 H3X        -0.9760   -8.4470   -4.0450 H         1 PLP1        0.0000
     98 H3Y        -2.6010   -8.5650   -3.2880 H         1 PLP1        0.0000
     99 C34        -1.6910  -10.4760   -3.7370 C.3       1 PLP1        0.0000
    100 H4X        -2.3230  -11.0250   -3.0030 H         1 PLP1        0.0000
    101 H4Y        -0.6780  -10.9380   -3.7260 H         1 PLP1        0.0000
    102 C35        -2.2980  -10.6300   -5.1370 C.3       1 PLP1        0.0000
    103 H5X        -1.6630  -10.0840   -5.8710 H         1 PLP1        0.0000
    104 H5Y        -3.3080  -10.1630   -5.1510 H         1 PLP1        0.0000
    105 C36        -2.4140  -12.0990   -5.5630 C.3       1 PLP1        0.0000
    106 H6X        -3.0620  -12.6380   -4.8360 H         1 PLP1        0.0000
    107 H6Y        -1.4040  -12.5660   -5.5280 H         1 PLP1        0.0000
    108 C37        -2.9930  -12.2670   -6.9740 C.3       1 PLP1        0.0000
    109 H7X        -2.3470  -11.7230   -7.7000 H         1 PLP1        0.0000
    110 H7Y        -4.0070  -11.8090   -7.0120 H         1 PLP1        0.0000
    111 C38        -3.0860  -13.7400   -7.3910 C.3       1 PLP1        0.0000
    112 H8X        -3.7410  -14.2820   -6.6720 H         1 PLP1        0.0000
    113 H8Y        -2.0730  -14.1980   -7.3350 H         1 PLP1        0.0000
    114 C39        -3.6380  -13.9240   -8.8100 C.3       1 PLP1        0.0000
    115 H9X        -2.9860  -13.3760   -9.5280 H         1 PLP1        0.0000
    116 H9Y        -4.6560  -13.4780   -8.8690 H         1 PLP1        0.0000
    117 C310       -3.7080  -15.4000   -9.2210 C.3       1 PLP1        0.0000
    118 H10X       -4.3670  -15.9460   -8.5100 H         1 PLP1        0.0000
    119 H10Y       -2.6900  -15.8450   -9.1490 H         1 PLP1        0.0000
    120 C311       -4.2370  -15.5930  -10.6470 C.3       1 PLP1        0.0000
    121 H11X       -3.5810  -15.0420  -11.3570 H         1 PLP1        0.0000
    122 H11Y       -5.2580  -15.1550  -10.7210 H         1 PLP1        0.0000
    123 C312       -4.2910  -17.0700  -11.0560 C.3       1 PLP1        0.0000
    124 H12X       -4.9510  -17.6210  -10.3490 H         1 PLP1        0.0000
    125 H12Y       -3.2700  -17.5070  -10.9750 H         1 PLP1        0.0000
    126 C313       -4.8090  -17.2670  -12.4860 C.3       1 PLP1        0.0000
    127 H13X       -4.1490  -16.7130  -13.1910 H         1 PLP1        0.0000
    128 H13Y       -5.8310  -16.8330  -12.5660 H         1 PLP1        0.0000
    129 C314       -4.8540  -18.7440  -12.8950 C.3       1 PLP1        0.0000
    130 H14X       -5.5140  -19.2980  -12.1900 H         1 PLP1        0.0000
    131 H14Y       -3.8320  -19.1780  -12.8120 H         1 PLP1        0.0000
    132 C315       -5.3680  -18.9450  -14.3260 C.3       1 PLP1        0.0000
    133 H15X       -4.7080  -18.3830  -15.0260 H         1 PLP1        0.0000
    134 H15Y       -6.3890  -18.5050  -14.4040 H         1 PLP1        0.0000
    135 C316       -5.4180  -20.4150  -14.7490 C.3       1 PLP1        0.0000
    136 H16X       -6.0900  -20.9900  -14.0770 H         1 PLP1        0.0000
    137 H16Y       -4.4040  -20.8670  -14.7010 H         1 PLP1        0.0000
    138 H16Z       -5.7960  -20.5090  -15.7900 H         1 PLP1        0.0000
@<TRIPOS>BOND
     1  138  135 1 
     2  133  132 1 
     3  135  137 1 
     4  135  132 1 
     5  135  136 1 
     6  134  132 1 
     7  132  129 1 
     8  127  126 1 
     9  129  131 1 
    10  129  126 1 
    11  129  130 1 
    12  128  126 1 
    13  126  123 1 
    14  121  120 1 
    15  123  125 1 
    16  123  120 1 
    17  123  124 1 
    18  122  120 1 
    19  120  117 1 
    20  115  114 1 
    21  117  119 1 
    22  117  114 1 
    23  117  118 1 
    24  116  114 1 
    25  114  111 1 
    26  109  108 1 
    27  111  113 1 
    28  111  108 1 
    29  111  112 1 
    30  110  108 1 
    31  108  105 1 
    32  103  102 1 
    33  105  107 1 
    34  105  102 1 
    35  105  106 1 
    36  104  102 1 
    37  102   99 1 
    38   97   96 1 
    39   99  101 1 
    40   99   96 1 
    41   99  100 1 
    42   96   98 1 
    43   96   48 1 
    44   47   46 2 
    45   50   48 1 
    46   48   46 1 
    47   48   49 1 
    48   46   45 1 
    49   15   12 2 
    50    6    5 1 
    51    2    1 1 
    52   25   24 1 
    53    7    8 1 
    54    7    5 1 
    55   44   42 1 
    56   45   42 1 
    57    5    1 1 
    58    5    9 1 
    59    1   24 1 
    60    1    3 1 
    61   29   24 1 
    62   29   26 1 
    63   13   12 1 
    64   24   20 1 
    65   12   11 1 
    66   12   14 1 
    67   35   34 1 
    68   17   16 1 
    69   42   34 1 
    70   42   43 1 
    71   38   37 2 
    72   30   26 1 
    73   30   31 1 
    74   11    9 1 
    75    9   16 1 
    76    9   10 1 
    77   34   31 1 
    78   34   36 1 
    79    3    4 1 
    80   22   20 1 
    81   22   23 1 
    82   16   20 1 
    83   16   18 1 
    84   20   21 1 
    85   26   28 2 
    86   26   27 1 
    87   52   51 1 
    88   37   36 1 
    89   37   39 1 
    90   31   32 1 
    91   31   33 1 
    92   19   18 1 
    93   53   51 1 
    94   58   57 1 
    95   51   39 1 
    96   51   54 1 
    97   59   57 1 
    98   39   41 1 
    99   39   40 1 
   100   64   63 1 
   101   57   54 1 
   102   57   60 1 
   103   65   63 1 
   104   54   56 1 
   105   54   55 1 
   106   70   69 1 
   107   63   60 1 
   108   63   66 1 
   109   60   62 1 
   110   60   61 1 
   111   69   66 1 
   112   69   71 2 
   113   72   71 1 
   114   77   76 1 
   115   66   68 1 
   116   66   67 1 
   117   71   73 1 
   118   81   80 1 
   119   76   73 1 
   120   76   78 2 
   121   82   80 1 
   122   73   75 1 
   123   73   74 1 
   124   80   78 1 
   125   80   83 1 
   126   87   86 1 
   127   78   79 1 
   128   88   86 1 
   129   86   83 1 
   130   86   89 1 
   131   93   92 1 
   132   83   85 1 
   133   83   84 1 
   134   94   92 1 
   135   92   89 1 
   136   92   95 1 
   137   89   91 1 
   138   89   90 1 
