@<TRIPOS>MOLECULE
C:\Users\Praveer\PycharmProjects\pdb_to_mol2_converter\data\pdb\plpi33.pdb
  145   145     0     0     0
SMALL
GASTEIGER

@<TRIPOS>ATOM
      1 C12         1.7370    0.2590    0.5210 C.3       1 PLP1        0.0000
      2 H2          2.3200   -0.5570    0.0290 H         1 PLP1        0.0000
      3 O2          1.9490    0.1220    1.9190 O.3       1 PLP1        0.0000
      4 HO2         1.6150    0.9670    2.2520 H         1 PLP1        0.0000
      5 C13         2.2520    1.5940    0.0170 C.3       1 PLP1        0.0000
      6 H3          1.9540    1.6910   -1.0650 H         1 PLP1        0.0000
      7 O3          3.6840    1.5580    0.1730 O.3       1 PLP1        0.0000
      8 P3          4.6280    1.0990   -1.0960 P.3       1 PLP1        0.0000
      9 OP32        4.9340    2.4790   -1.8020 O.3       1 PLP1        0.0000
     10 HP32        4.5380    3.2090   -1.2650 H         1 PLP1        0.0000
     11 OP33        5.9550    0.5330   -0.5850 O.3       1 PLP1        0.0000
     12 OP34        3.8610    0.2020   -2.0640 O.2       1 PLP1        0.0000
     13 C14         1.5500    2.7740    0.7460 C.3       1 PLP1        0.0000
     14 H4          2.1500    3.0060    1.6600 H         1 PLP1        0.0000
     15 O4          1.5410    3.9570   -0.0680 O.3       1 PLP1        0.0000
     16 P4          2.7560    4.9780   -0.5810 P.3       1 PLP1        0.0000
     17 OP42        2.4730    6.3720   -0.0140 O.3       1 PLP1        0.0000
     18 OP43        2.6570    4.9690   -2.1030 O.2       1 PLP1        0.0000
     19 OP44        4.1150    4.4610   -0.1180 O.3       1 PLP1        0.0000
     20 C15         0.0610    2.4500    1.2380 C.3       1 PLP1        0.0000
     21 H5         -0.5610    3.1340    0.5960 H         1 PLP1        0.0000
     22 O5         -0.1940    2.8270    2.6080 O.3       1 PLP1        0.0000
     23 P5         -1.7200    3.2490    3.1760 P.3       1 PLP1        0.0000
     24 OP52       -2.1520    4.5490    2.5020 O.2       1 PLP1        0.0000
     25 OP53       -2.6620    2.0970    2.8210 O.3       1 PLP1        0.0000
     26 OP54       -1.5750    3.4260    4.6850 O.3       1 PLP1        0.0000
     27 C16        -0.5420    1.0280    0.9720 C.3       1 PLP1        0.0000
     28 H6         -0.5950    0.5280    1.9780 H         1 PLP1        0.0000
     29 O6         -1.9000    1.1030    0.5570 O.3       1 PLP1        0.0000
     30 HO6        -2.3150    1.5030    1.3670 H         1 PLP1        0.0000
     31 C11         0.2900    0.0670    0.1370 C.3       1 PLP1        0.0000
     32 H1          0.1990    0.4080   -0.9230 H         1 PLP1        0.0000
     33 P          -0.1040   -2.4860    1.2520 P.3       1 PLP1        0.0000
     34 O13        -0.2500   -2.0110    2.6430 O.3       1 PLP1        0.0000
     35 O14         0.9950   -3.4440    0.9580 O.2       1 PLP1        0.0000
     36 O12        -0.1620   -1.2960    0.1230 O.3       1 PLP1        0.0000
     37 O11        -1.4430   -3.3220    0.9540 O.3       1 PLP1        0.0000
     38 C1         -1.8300   -4.3820    1.8510 C.3       1 PLP1        0.0000
     39 HA         -2.8500   -4.1990    2.2660 H         1 PLP1        0.0000
     40 HB         -1.1570   -4.4680    2.7370 H         1 PLP1        0.0000
     41 C2         -1.8490   -5.7570    1.1310 C.3       1 PLP1        0.0000
     42 HS         -2.6600   -5.7170    0.3650 H         1 PLP1        0.0000
     43 O21        -2.0920   -6.7660    2.1380 O.3       1 PLP1        0.0000
     44 C21        -2.7400   -7.8400    1.7220 C.2       1 PLP1        0.0000
     45 O22        -3.2300   -8.0160    0.6350 O.2       1 PLP1        0.0000
     46 C22        -2.7840   -8.8540    2.8770 C.3       1 PLP1        0.0000
     47 H2R        -3.2820   -8.3650    3.7380 H         1 PLP1        0.0000
     48 H2S        -1.7410   -9.0990    3.1620 H         1 PLP1        0.0000
     49 C3         -0.5050   -6.0400    0.3880 C.3       1 PLP1        0.0000
     50 HX          0.3160   -5.9780    1.1350 H         1 PLP1        0.0000
     51 HY         -0.3050   -5.2250   -0.3470 H         1 PLP1        0.0000
     52 O31        -0.4630   -7.3530   -0.2140 O.3       1 PLP1        0.0000
     53 C31        -1.0410   -7.4270   -1.4050 C.2       1 PLP1        0.0000
     54 O32        -1.5130   -6.4960   -2.0370 O.2       1 PLP1        0.0000
     55 C32        -1.0290   -8.8790   -1.8700 C.3       1 PLP1        0.0000
     56 H2X        -1.6320   -9.4680   -1.1470 H         1 PLP1        0.0000
     57 H2Y         0.0190   -9.2410   -1.8520 H         1 PLP1        0.0000
     58 C23        -3.5460  -10.1390    2.4780 C.3       1 PLP1        0.0000
     59 H3R        -3.0320  -10.6190    1.6140 H         1 PLP1        0.0000
     60 H3S        -4.5760   -9.8700    2.1470 H         1 PLP1        0.0000
     61 C24        -3.6540  -11.1610    3.6180 C.3       1 PLP1        0.0000
     62 H4R        -4.1680  -10.6920    4.4870 H         1 PLP1        0.0000
     63 H4S        -2.6340  -11.4590    3.9470 H         1 PLP1        0.0000
     64 C25        -4.4330  -12.4150    3.1920 C.3       1 PLP1        0.0000
     65 H5R        -3.9160  -12.8880    2.3270 H         1 PLP1        0.0000
     66 H5S        -5.4490  -12.1110    2.8500 H         1 PLP1        0.0000
     67 C26        -4.5740  -13.4450    4.3200 C.3       1 PLP1        0.0000
     68 H6R        -5.0960  -12.9720    5.1820 H         1 PLP1        0.0000
     69 H6S        -3.5600  -13.7480    4.6640 H         1 PLP1        0.0000
     70 C27        -5.3540  -14.6960    3.8890 C.3       1 PLP1        0.0000
     71 H7R        -4.8360  -15.1530    3.0160 H         1 PLP1        0.0000
     72 H7S        -6.3710  -14.3860    3.5590 H         1 PLP1        0.0000
     73 C28        -5.4720  -15.7320    5.0240 C.3       1 PLP1        0.0000
     74 H8R        -5.9400  -15.2310    5.9010 H         1 PLP1        0.0000
     75 H8S        -4.4440  -16.0260    5.3310 H         1 PLP1        0.0000
     76 C29        -6.2450  -16.9550    4.5910 C.2       1 PLP1        0.0000
     77 H91        -5.8330  -17.4620    3.7040 H         1 PLP1        0.0000
     78 C210       -7.3640  -17.4530    5.1560 C.2       1 PLP1        0.0000
     79 H101       -7.8130  -18.3570    4.7150 H         1 PLP1        0.0000
     80 C211       -8.1030  -16.9120    6.3590 C.3       1 PLP1        0.0000
     81 H11R       -7.3800  -16.5130    7.1060 H         1 PLP1        0.0000
     82 H11S       -8.6200  -17.7550    6.8710 H         1 PLP1        0.0000
     83 C212       -9.1040  -15.8380    6.0030 C.2       1 PLP1        0.0000
     84 H121       -9.1430  -15.5260    4.9470 H         1 PLP1        0.0000
     85 C213       -9.9340  -15.2550    6.8860 C.2       1 PLP1        0.0000
     86 H131       -9.8990  -15.5580    7.9440 H         1 PLP1        0.0000
     87 C214      -10.9380  -14.1850    6.5370 C.3       1 PLP1        0.0000
     88 H14R      -11.6860  -14.5750    5.8100 H         1 PLP1        0.0000
     89 H14S      -10.4370  -13.3160    6.0540 H         1 PLP1        0.0000
     90 C215      -11.6910  -13.6830    7.7850 C.3       1 PLP1        0.0000
     91 H15R      -10.9630  -13.2540    8.5110 H         1 PLP1        0.0000
     92 H15S      -12.2020  -14.5390    8.2810 H         1 PLP1        0.0000
     93 C216      -12.7420  -12.6150    7.4520 C.3       1 PLP1        0.0000
     94 H16R      -13.4740  -13.0390    6.7280 H         1 PLP1        0.0000
     95 H16S      -12.2410  -11.7520    6.9590 H         1 PLP1        0.0000
     96 C217      -13.5030  -12.1090    8.6850 C.3       1 PLP1        0.0000
     97 H17R      -12.7740  -11.6830    9.4120 H         1 PLP1        0.0000
     98 H17S      -14.0030  -12.9720    9.1820 H         1 PLP1        0.0000
     99 C218      -14.5520  -11.0480    8.3420 C.3       1 PLP1        0.0000
    100 H18R      -15.3040  -11.4610    7.6360 H         1 PLP1        0.0000
    101 H18S      -14.0700  -10.1670    7.8640 H         1 PLP1        0.0000
    102 H18T      -15.0800  -10.7060    9.2580 H         1 PLP1        0.0000
    103 C33        -1.6260   -9.0320   -3.2840 C.3       1 PLP1        0.0000
    104 H3X        -1.0170   -8.4590   -4.0190 H         1 PLP1        0.0000
    105 H3Y        -2.6570   -8.6070   -3.3050 H         1 PLP1        0.0000
    106 C34        -1.6950  -10.4980   -3.7190 C.3       1 PLP1        0.0000
    107 H4X        -2.3180  -11.0630   -2.9900 H         1 PLP1        0.0000
    108 H4Y        -0.6730  -10.9370   -3.7030 H         1 PLP1        0.0000
    109 C35        -2.2920  -10.6590   -5.1210 C.3       1 PLP1        0.0000
    110 H5X        -1.6550  -10.1140   -5.8540 H         1 PLP1        0.0000
    111 H5Y        -3.3040  -10.1960   -5.1410 H         1 PLP1        0.0000
    112 C36        -2.4020  -12.1290   -5.5400 C.3       1 PLP1        0.0000
    113 H6X        -3.0480  -12.6680   -4.8100 H         1 PLP1        0.0000
    114 H6Y        -1.3920  -12.5940   -5.5050 H         1 PLP1        0.0000
    115 C37        -2.9850  -12.2930   -6.9490 C.3       1 PLP1        0.0000
    116 H7X        -2.3400  -11.7460   -7.6730 H         1 PLP1        0.0000
    117 H7Y        -3.9970  -11.8290   -6.9810 H         1 PLP1        0.0000
    118 C38        -3.0860  -13.7640   -7.3710 C.3       1 PLP1        0.0000
    119 H8X        -3.7410  -14.3040   -6.6520 H         1 PLP1        0.0000
    120 H8Y        -2.0730  -14.2230   -7.3160 H         1 PLP1        0.0000
    121 C39        -3.6390  -13.9420   -8.7920 C.3       1 PLP1        0.0000
    122 H9X        -2.9870  -13.3930   -9.5070 H         1 PLP1        0.0000
    123 H9Y        -4.6560  -13.4930   -8.8470 H         1 PLP1        0.0000
    124 C310       -3.7130  -15.4180   -9.2080 C.3       1 PLP1        0.0000
    125 H10X       -4.3720  -15.9630   -8.4950 H         1 PLP1        0.0000
    126 H10Y       -2.6950  -15.8640   -9.1350 H         1 PLP1        0.0000
    127 C311       -4.2420  -15.6150  -10.6350 C.3       1 PLP1        0.0000
    128 H11X       -3.5860  -15.0650  -11.3460 H         1 PLP1        0.0000
    129 H11Y       -5.2630  -15.1780  -10.7100 H         1 PLP1        0.0000
    130 C312       -4.2960  -17.0940  -11.0440 C.3       1 PLP1        0.0000
    131 H12X       -4.9560  -17.6440  -10.3360 H         1 PLP1        0.0000
    132 H12Y       -3.2760  -17.5310  -10.9620 H         1 PLP1        0.0000
    133 C313       -4.8140  -17.2990  -12.4740 C.3       1 PLP1        0.0000
    134 H13X       -4.1550  -16.7470  -13.1820 H         1 PLP1        0.0000
    135 H13Y       -5.8360  -16.8670  -12.5580 H         1 PLP1        0.0000
    136 C314       -4.8600  -18.7780  -12.8820 C.3       1 PLP1        0.0000
    137 H14X       -5.5190  -19.3320  -12.1770 H         1 PLP1        0.0000
    138 H14Y       -3.8380  -19.2120  -12.7980 H         1 PLP1        0.0000
    139 C315       -5.3740  -18.9840  -14.3130 C.3       1 PLP1        0.0000
    140 H15X       -4.7140  -18.4250  -15.0150 H         1 PLP1        0.0000
    141 H15Y       -6.3950  -18.5460  -14.3940 H         1 PLP1        0.0000
    142 C316       -5.4230  -20.4550  -14.7340 C.3       1 PLP1        0.0000
    143 H16X       -6.0960  -21.0300  -14.0610 H         1 PLP1        0.0000
    144 H16Y       -4.4090  -20.9080  -14.6850 H         1 PLP1        0.0000
    145 H16Z       -5.8010  -20.5510  -15.7750 H         1 PLP1        0.0000
@<TRIPOS>BOND
     1  145  142 1 
     2  140  139 1 
     3  142  144 1 
     4  142  139 1 
     5  142  143 1 
     6  141  139 1 
     7  139  136 1 
     8  134  133 1 
     9  136  138 1 
    10  136  133 1 
    11  136  137 1 
    12  135  133 1 
    13  133  130 1 
    14  128  127 1 
    15  130  132 1 
    16  130  127 1 
    17  130  131 1 
    18  129  127 1 
    19  127  124 1 
    20  122  121 1 
    21  124  126 1 
    22  124  121 1 
    23  124  125 1 
    24  123  121 1 
    25  121  118 1 
    26  116  115 1 
    27  118  120 1 
    28  118  115 1 
    29  118  119 1 
    30  117  115 1 
    31  115  112 1 
    32  110  109 1 
    33  112  114 1 
    34  112  109 1 
    35  112  113 1 
    36  111  109 1 
    37  109  106 1 
    38  104  103 1 
    39  106  108 1 
    40  106  103 1 
    41  106  107 1 
    42  105  103 1 
    43  103   55 1 
    44   18   16 2 
    45   12    8 2 
    46   54   53 2 
    47   55   57 1 
    48   55   53 1 
    49   55   56 1 
    50    9   10 1 
    51    9    8 1 
    52   53   52 1 
    53    8   11 1 
    54    8    7 1 
    55    6    5 1 
    56   32   31 1 
    57   16   19 1 
    58   16   15 1 
    59   16   17 1 
    60   51   49 1 
    61   52   49 1 
    62   15   13 1 
    63    5    7 1 
    64    5    1 1 
    65    5   13 1 
    66    2    1 1 
    67   36   31 1 
    68   36   33 1 
    69   31    1 1 
    70   31   27 1 
    71   42   41 1 
    72   49   41 1 
    73   49   50 1 
    74    1    3 1 
    75   29   27 1 
    76   29   30 1 
    77   21   20 1 
    78   45   44 2 
    79   13   20 1 
    80   13   14 1 
    81   37   33 1 
    82   37   38 1 
    83   35   33 2 
    84   27   20 1 
    85   27   28 1 
    86   41   38 1 
    87   41   43 1 
    88   20   22 1 
    89   33   34 1 
    90   59   58 1 
    91   44   43 1 
    92   44   46 1 
    93   38   39 1 
    94   38   40 1 
    95    3    4 1 
    96   60   58 1 
    97   65   64 1 
    98   58   46 1 
    99   58   61 1 
   100   24   23 2 
   101   22   23 1 
   102   25   23 1 
   103   66   64 1 
   104   46   48 1 
   105   46   47 1 
   106   71   70 1 
   107   23   26 1 
   108   64   61 1 
   109   64   67 1 
   110   72   70 1 
   111   61   63 1 
   112   61   62 1 
   113   77   76 1 
   114   70   67 1 
   115   70   73 1 
   116   67   69 1 
   117   67   68 1 
   118   76   73 1 
   119   76   78 2 
   120   79   78 1 
   121   84   83 1 
   122   73   75 1 
   123   73   74 1 
   124   78   80 1 
   125   88   87 1 
   126   83   80 1 
   127   83   85 2 
   128   89   87 1 
   129   80   82 1 
   130   80   81 1 
   131   87   85 1 
   132   87   90 1 
   133   94   93 1 
   134   85   86 1 
   135   95   93 1 
   136   93   90 1 
   137   93   96 1 
   138  100   99 1 
   139   90   92 1 
   140   90   91 1 
   141  101   99 1 
   142   99   96 1 
   143   99  102 1 
   144   96   98 1 
   145   96   97 1 
