@<TRIPOS>MOLECULE
C:\Users\Praveer\PycharmProjects\pdb_to_mol2_converter\data\pdb\plpi2c.pdb
  142   142     0     0     0
SMALL
GASTEIGER

@<TRIPOS>ATOM
      1 C12         1.7940   -0.0020    0.3270 C.3       1 PLP1        0.0000
      2 H2          2.1410   -0.7010   -0.4720 H         1 PLP1        0.0000
      3 O2          2.2020   -0.5470    1.5830 O.3       1 PLP1        0.0000
      4 HO2         1.8960   -1.4700    1.6010 H         1 PLP1        0.0000
      5 C13         2.4230    1.3600    0.0360 C.3       1 PLP1        0.0000
      6 H3          2.0080    1.7480   -0.9320 H         1 PLP1        0.0000
      7 O3          3.8550    1.2140   -0.0060 O.3       1 PLP1        0.0000
      8 P3          4.6200    1.1230   -1.4530 P.3       1 PLP1        0.0000
      9 OP32        4.8280    2.6510   -1.8410 O.3       1 PLP1        0.0000
     10 HP32        4.1810    3.2490   -1.4190 H         1 PLP1        0.0000
     11 OP33        5.9910    0.4810   -1.2560 O.3       1 PLP1        0.0000
     12 OP34        3.7080    0.4450   -2.4710 O.2       1 PLP1        0.0000
     13 C14         1.9990    2.3820    1.0880 C.3       1 PLP1        0.0000
     14 H4          2.4460    2.0070    2.0410 H         1 PLP1        0.0000
     15 O4          2.5990    3.6530    0.8850 O.3       1 PLP1        0.0000
     16 P4          2.2190    4.9080   -0.0900 P.3       1 PLP1        0.0000
     17 OP42        1.9230    6.0460    0.8840 O.3       1 PLP1        0.0000
     18 OP43        0.9990    4.5260   -0.9180 O.3       1 PLP1        0.0000
     19 OP44        3.4640    5.1280   -0.9410 O.2       1 PLP1        0.0000
     20 C15         0.4850    2.4190    1.3360 C.3       1 PLP1        0.0000
     21 H5          0.0210    2.9490    0.4700 H         1 PLP1        0.0000
     22 O5          0.2140    3.2100    2.4940 O.3       1 PLP1        0.0000
     23 HO5         0.6330    4.0550    2.2580 H         1 PLP1        0.0000
     24 C16        -0.2330    1.0540    1.3250 C.3       1 PLP1        0.0000
     25 H6         -0.0290    0.5940    2.3200 H         1 PLP1        0.0000
     26 O6         -1.6430    1.1780    1.1630 O.3       1 PLP1        0.0000
     27 HO6        -1.9040    0.2770    0.9460 H         1 PLP1        0.0000
     28 C11         0.2790    0.0940    0.2540 C.3       1 PLP1        0.0000
     29 H1          0.0720    0.5890   -0.7300 H         1 PLP1        0.0000
     30 P          -0.4860   -2.2740    1.4290 P.3       1 PLP1        0.0000
     31 O13        -1.2090   -1.7150    2.5890 O.3       1 PLP1        0.0000
     32 O14         0.8470   -2.8750    1.6660 O.2       1 PLP1        0.0000
     33 O12        -0.4030   -1.1790    0.2000 O.3       1 PLP1        0.0000
     34 O11        -1.4130   -3.4190    0.8370 O.3       1 PLP1        0.0000
     35 C1         -1.8920   -4.4200    1.7480 C.3       1 PLP1        0.0000
     36 HA         -2.9300   -4.1760    2.0650 H         1 PLP1        0.0000
     37 HB         -1.2670   -4.5110    2.6730 H         1 PLP1        0.0000
     38 C2         -1.8630   -5.8050    1.0740 C.3       1 PLP1        0.0000
     39 HS         -2.6530   -5.8030    0.2840 H         1 PLP1        0.0000
     40 O21        -2.1030   -6.7870    2.1050 O.3       1 PLP1        0.0000
     41 C21        -2.6960   -7.8920    1.7000 C.2       1 PLP1        0.0000
     42 O22        -3.1360   -8.1080    0.5800 O.2       1 PLP1        0.0000
     43 C22        -2.7580   -8.8840    2.8610 C.3       1 PLP1        0.0000
     44 H2R        -3.2520   -8.3830    3.7190 H         1 PLP1        0.0000
     45 H2S        -1.7170   -9.1370    3.1470 H         1 PLP1        0.0000
     46 C3         -0.4790   -6.0460    0.3960 C.3       1 PLP1        0.0000
     47 HX          0.2930   -5.9670    1.1940 H         1 PLP1        0.0000
     48 HY         -0.2630   -5.2190   -0.3220 H         1 PLP1        0.0000
     49 O31        -0.3870   -7.3480   -0.2240 O.3       1 PLP1        0.0000
     50 C31        -0.9350   -7.4110   -1.4350 C.2       1 PLP1        0.0000
     51 O32        -1.3740   -6.4720   -2.0720 O.2       1 PLP1        0.0000
     52 C32        -0.9370   -8.8640   -1.8970 C.3       1 PLP1        0.0000
     53 H2X        -1.5170   -9.4470   -1.1500 H         1 PLP1        0.0000
     54 H2Y         0.1090   -9.2300   -1.9070 H         1 PLP1        0.0000
     55 C23        -3.5310  -10.1640    2.4730 C.3       1 PLP1        0.0000
     56 H3R        -3.0180  -10.6610    1.6170 H         1 PLP1        0.0000
     57 H3S        -4.5570   -9.8910    2.1330 H         1 PLP1        0.0000
     58 C24        -3.6550  -11.1700    3.6260 C.3       1 PLP1        0.0000
     59 H4R        -4.1720  -10.6850    4.4840 H         1 PLP1        0.0000
     60 H4S        -2.6380  -11.4690    3.9660 H         1 PLP1        0.0000
     61 C25        -4.4380  -12.4260    3.2120 C.3       1 PLP1        0.0000
     62 H5R        -3.9220  -12.9050    2.3490 H         1 PLP1        0.0000
     63 H5S        -5.4530  -12.1230    2.8700 H         1 PLP1        0.0000
     64 C26        -4.5790  -13.4550    4.3440 C.3       1 PLP1        0.0000
     65 H6R        -5.1040  -12.9820    5.2040 H         1 PLP1        0.0000
     66 H6S        -3.5640  -13.7550    4.6900 H         1 PLP1        0.0000
     67 C27        -5.3560  -14.7080    3.9050 C.3       1 PLP1        0.0000
     68 H7R        -4.8350  -15.1570    3.0300 H         1 PLP1        0.0000
     69 H7S        -6.3720  -14.3950    3.5730 H         1 PLP1        0.0000
     70 C28        -5.4830  -15.7590    5.0260 C.3       1 PLP1        0.0000
     71 H8R        -5.9560  -15.2640    5.9050 H         1 PLP1        0.0000
     72 H8S        -4.4590  -16.0590    5.3390 H         1 PLP1        0.0000
     73 C29        -6.2560  -16.9810    4.5850 C.2       1 PLP1        0.0000
     74 H91        -5.8370  -17.4970    3.7060 H         1 PLP1        0.0000
     75 C210       -7.3800  -17.4720    5.1460 C.2       1 PLP1        0.0000
     76 H101       -7.8330  -18.3780    4.7140 H         1 PLP1        0.0000
     77 C211       -8.1100  -16.9160    6.3460 C.3       1 PLP1        0.0000
     78 H11R       -7.3780  -16.5040    7.0780 H         1 PLP1        0.0000
     79 H11S       -8.6200  -17.7490    6.8790 H         1 PLP1        0.0000
     80 C212       -9.1140  -15.8450    5.9950 C.2       1 PLP1        0.0000
     81 H121       -9.1680  -15.5360    4.9380 H         1 PLP1        0.0000
     82 C213       -9.9270  -15.2610    6.8910 C.2       1 PLP1        0.0000
     83 H131       -9.8730  -15.5660    7.9480 H         1 PLP1        0.0000
     84 C214      -10.9310  -14.1900    6.5500 C.3       1 PLP1        0.0000
     85 H14R      -11.6740  -14.5820    5.8190 H         1 PLP1        0.0000
     86 H14S      -10.4220  -13.3240    6.0690 H         1 PLP1        0.0000
     87 C215      -11.6920  -13.6800    7.7900 C.3       1 PLP1        0.0000
     88 H15R      -10.9690  -13.2450    8.5170 H         1 PLP1        0.0000
     89 H15S      -12.2050  -14.5340    8.2890 H         1 PLP1        0.0000
     90 C216      -12.7440  -12.6140    7.4460 C.3       1 PLP1        0.0000
     91 H16R      -13.4740  -13.0420    6.7220 H         1 PLP1        0.0000
     92 H16S      -12.2440  -11.7520    6.9500 H         1 PLP1        0.0000
     93 C217      -13.5070  -12.1060    8.6780 C.3       1 PLP1        0.0000
     94 H17R      -12.7750  -11.6830    9.4040 H         1 PLP1        0.0000
     95 H17S      -14.0050  -12.9710    9.1740 H         1 PLP1        0.0000
     96 C218      -14.5580  -11.0430    8.3450 C.3       1 PLP1        0.0000
     97 H18R      -15.3140  -11.4520    7.6410 H         1 PLP1        0.0000
     98 H18S      -14.0800  -10.1600    7.8700 H         1 PLP1        0.0000
     99 H18T      -15.0810  -10.7060    9.2660 H         1 PLP1        0.0000
    100 C33        -1.5780   -9.0180   -3.2920 C.3       1 PLP1        0.0000
    101 H3X        -0.9780   -8.4580   -4.0450 H         1 PLP1        0.0000
    102 H3Y        -2.6020   -8.5760   -3.2840 H         1 PLP1        0.0000
    103 C34        -1.6850  -10.4850   -3.7190 C.3       1 PLP1        0.0000
    104 H4X        -2.3150  -11.0330   -2.9820 H         1 PLP1        0.0000
    105 H4Y        -0.6720  -10.9450   -3.7080 H         1 PLP1        0.0000
    106 C35        -2.2950  -10.6420   -5.1180 C.3       1 PLP1        0.0000
    107 H5X        -1.6610  -10.0970   -5.8530 H         1 PLP1        0.0000
    108 H5Y        -3.3050  -10.1740   -5.1310 H         1 PLP1        0.0000
    109 C36        -2.4130  -12.1110   -5.5440 C.3       1 PLP1        0.0000
    110 H6X        -3.0620  -12.6490   -4.8170 H         1 PLP1        0.0000
    111 H6Y        -1.4040  -12.5800   -5.5090 H         1 PLP1        0.0000
    112 C37        -2.9930  -12.2780   -6.9540 C.3       1 PLP1        0.0000
    113 H7X        -2.3480  -11.7340   -7.6800 H         1 PLP1        0.0000
    114 H7Y        -4.0060  -11.8200   -6.9920 H         1 PLP1        0.0000
    115 C38        -3.0870  -13.7520   -7.3700 C.3       1 PLP1        0.0000
    116 H8X        -3.7430  -14.2920   -6.6510 H         1 PLP1        0.0000
    117 H8Y        -2.0740  -14.2090   -7.3130 H         1 PLP1        0.0000
    118 C39        -3.6380  -13.9370   -8.7890 C.3       1 PLP1        0.0000
    119 H9X        -2.9870  -13.3910   -9.5080 H         1 PLP1        0.0000
    120 H9Y        -4.6570  -13.4920   -8.8490 H         1 PLP1        0.0000
    121 C310       -3.7080  -15.4140   -9.1970 C.3       1 PLP1        0.0000
    122 H10X       -4.3680  -15.9590   -8.4850 H         1 PLP1        0.0000
    123 H10Y       -2.6910  -15.8600   -9.1240 H         1 PLP1        0.0000
    124 C311       -4.2370  -15.6100  -10.6230 C.3       1 PLP1        0.0000
    125 H11X       -3.5810  -15.0600  -11.3350 H         1 PLP1        0.0000
    126 H11Y       -5.2580  -15.1730  -10.6980 H         1 PLP1        0.0000
    127 C312       -4.2910  -17.0880  -11.0290 C.3       1 PLP1        0.0000
    128 H12X       -4.9510  -17.6380  -10.3220 H         1 PLP1        0.0000
    129 H12Y       -3.2700  -17.5250  -10.9480 H         1 PLP1        0.0000
    130 C313       -4.8080  -17.2870  -12.4590 C.3       1 PLP1        0.0000
    131 H13X       -4.1490  -16.7350  -13.1660 H         1 PLP1        0.0000
    132 H13Y       -5.8300  -16.8540  -12.5400 H         1 PLP1        0.0000
    133 C314       -4.8540  -18.7650  -12.8660 C.3       1 PLP1        0.0000
    134 H14X       -5.5130  -19.3180  -12.1600 H         1 PLP1        0.0000
    135 H14Y       -3.8320  -19.1980  -12.7820 H         1 PLP1        0.0000
    136 C315       -5.3680  -18.9680  -14.2960 C.3       1 PLP1        0.0000
    137 H15X       -4.7080  -18.4070  -14.9970 H         1 PLP1        0.0000
    138 H15Y       -6.3890  -18.5280  -14.3750 H         1 PLP1        0.0000
    139 C316       -5.4180  -20.4380  -14.7180 C.3       1 PLP1        0.0000
    140 H16X       -6.0900  -21.0120  -14.0440 H         1 PLP1        0.0000
    141 H16Y       -4.4040  -20.8900  -14.6680 H         1 PLP1        0.0000
    142 H16Z       -5.7960  -20.5350  -15.7580 H         1 PLP1        0.0000
@<TRIPOS>BOND
     1  142  139 1 
     2  137  136 1 
     3  139  141 1 
     4  139  136 1 
     5  139  140 1 
     6  138  136 1 
     7  136  133 1 
     8  131  130 1 
     9  133  135 1 
    10  133  130 1 
    11  133  134 1 
    12  132  130 1 
    13  130  127 1 
    14  125  124 1 
    15  127  129 1 
    16  127  124 1 
    17  127  128 1 
    18  126  124 1 
    19  124  121 1 
    20  119  118 1 
    21  121  123 1 
    22  121  118 1 
    23  121  122 1 
    24  120  118 1 
    25  118  115 1 
    26  113  112 1 
    27  115  117 1 
    28  115  112 1 
    29  115  116 1 
    30  114  112 1 
    31  112  109 1 
    32  107  106 1 
    33  109  111 1 
    34  109  106 1 
    35  109  110 1 
    36  108  106 1 
    37  106  103 1 
    38  101  100 1 
    39  103  105 1 
    40  103  100 1 
    41  103  104 1 
    42  100  102 1 
    43  100   52 1 
    44   12    8 2 
    45   51   50 2 
    46   54   52 1 
    47   52   50 1 
    48   52   53 1 
    49    9    8 1 
    50    9   10 1 
    51    8   11 1 
    52    8    7 1 
    53   50   49 1 
    54   19   16 2 
    55    6    5 1 
    56   18   16 1 
    57   29   28 1 
    58    2    1 1 
    59   48   46 1 
    60   49   46 1 
    61   16   17 1 
    62   16   15 1 
    63    7    5 1 
    64    5    1 1 
    65    5   13 1 
    66   33   28 1 
    67   33   30 1 
    68   28    1 1 
    69   28   24 1 
    70   39   38 1 
    71    1    3 1 
    72   46   38 1 
    73   46   47 1 
    74   21   20 1 
    75   42   41 2 
    76   34   30 1 
    77   34   35 1 
    78   15   13 1 
    79   27   26 1 
    80   38   35 1 
    81   38   40 1 
    82   13   20 1 
    83   13   14 1 
    84   26   24 1 
    85   24   20 1 
    86   24   25 1 
    87   20   22 1 
    88   30   32 2 
    89   30   31 1 
    90    3    4 1 
    91   56   55 1 
    92   41   40 1 
    93   41   43 1 
    94   35   36 1 
    95   35   37 1 
    96   57   55 1 
    97   23   22 1 
    98   62   61 1 
    99   55   43 1 
   100   55   58 1 
   101   43   45 1 
   102   43   44 1 
   103   63   61 1 
   104   68   67 1 
   105   61   58 1 
   106   61   64 1 
   107   69   67 1 
   108   58   60 1 
   109   58   59 1 
   110   74   73 1 
   111   67   64 1 
   112   67   70 1 
   113   64   66 1 
   114   64   65 1 
   115   73   70 1 
   116   73   75 2 
   117   76   75 1 
   118   81   80 1 
   119   70   72 1 
   120   70   71 1 
   121   75   77 1 
   122   85   84 1 
   123   80   77 1 
   124   80   82 2 
   125   86   84 1 
   126   77   79 1 
   127   77   78 1 
   128   84   82 1 
   129   84   87 1 
   130   91   90 1 
   131   82   83 1 
   132   92   90 1 
   133   90   87 1 
   134   90   93 1 
   135   97   96 1 
   136   87   89 1 
   137   87   88 1 
   138   98   96 1 
   139   96   93 1 
   140   96   99 1 
   141   93   95 1 
   142   93   94 1 
