@<TRIPOS>MOLECULE
C:\Users\Praveer\PycharmProjects\pdb_to_mol2_converter\data\pdb\plpi25.pdb
  142   142     0     0     0
SMALL
GASTEIGER

@<TRIPOS>ATOM
      1 C12         1.8000    0.1680    0.3380 C.3       1 PLP1        0.0000
      2 H2          2.3270   -0.4370   -0.4380 H         1 PLP1        0.0000
      3 O2          2.2120   -0.3330    1.6060 O.3       1 PLP1        0.0000
      4 HO2         1.5920    0.0090    2.2570 H         1 PLP1        0.0000
      5 C13         2.2060    1.6150    0.1540 C.3       1 PLP1        0.0000
      6 H3          1.7750    1.9880   -0.8040 H         1 PLP1        0.0000
      7 O3          3.6190    1.7040    0.0100 O.3       1 PLP1        0.0000
      8 HO3         3.8830    2.6140    0.3190 H         1 PLP1        0.0000
      9 C14         1.6600    2.5050    1.2680 C.3       1 PLP1        0.0000
     10 H4          2.1400    2.1990    2.2300 H         1 PLP1        0.0000
     11 O4          1.9120    3.8940    1.0070 O.3       1 PLP1        0.0000
     12 P4          3.2770    4.7070    1.4780 P.3       1 PLP1        0.0000
     13 OP42        3.0460    6.1550    1.0650 O.3       1 PLP1        0.0000
     14 OP43        3.4330    4.5250    2.9830 O.3       1 PLP1        0.0000
     15 OP44        4.4070    4.0560    0.6850 O.2       1 PLP1        0.0000
     16 C15         0.1230    2.3160    1.4130 C.3       1 PLP1        0.0000
     17 H5         -0.2740    3.1080    0.7130 H         1 PLP1        0.0000
     18 O5         -0.3040    2.6320    2.7500 O.3       1 PLP1        0.0000
     19 P5         -1.8470    3.1100    3.0470 P.3       1 PLP1        0.0000
     20 OP52       -2.2140    1.7060    3.6970 O.3       1 PLP1        0.0000
     21 HP52       -1.3870    1.2130    3.7750 H         1 PLP1        0.0000
     22 OP53       -2.6390    3.2790    1.7560 O.2       1 PLP1        0.0000
     23 OP54       -1.9370    4.1850    4.1200 O.3       1 PLP1        0.0000
     24 C16        -0.5360    1.0170    0.8560 C.3       1 PLP1        0.0000
     25 H6         -0.8160    0.4520    1.7790 H         1 PLP1        0.0000
     26 O6         -1.7780    1.2890    0.2090 O.3       1 PLP1        0.0000
     27 HO6        -2.1840    2.0300    0.7120 H         1 PLP1        0.0000
     28 C11         0.3110    0.0020    0.0880 C.3       1 PLP1        0.0000
     29 H1          0.2090    0.3500   -0.9750 H         1 PLP1        0.0000
     30 P          -0.1250   -2.4500    1.2800 P.3       1 PLP1        0.0000
     31 O13        -0.2080   -1.8050    2.6110 O.3       1 PLP1        0.0000
     32 O14         0.9820   -3.4060    1.0470 O.2       1 PLP1        0.0000
     33 O12        -0.1900   -1.3470    0.0490 O.3       1 PLP1        0.0000
     34 O11        -1.4650   -3.2980    1.0970 O.3       1 PLP1        0.0000
     35 C1         -1.7150   -4.3960    1.9920 C.3       1 PLP1        0.0000
     36 HA         -2.6730   -4.2130    2.5260 H         1 PLP1        0.0000
     37 HB         -0.9270   -4.5240    2.7770 H         1 PLP1        0.0000
     38 C2         -1.8290   -5.7430    1.2280 C.3       1 PLP1        0.0000
     39 HS         -2.6660   -5.6370    0.4990 H         1 PLP1        0.0000
     40 O21        -2.0880   -6.7740    2.2060 O.3       1 PLP1        0.0000
     41 C21        -2.7560   -7.8270    1.7680 C.2       1 PLP1        0.0000
     42 O22        -3.2700   -7.9530    0.6690 O.2       1 PLP1        0.0000
     43 C22        -2.7940   -8.8870    2.8740 C.3       1 PLP1        0.0000
     44 H2R        -3.2800   -8.4280    3.7590 H         1 PLP1        0.0000
     45 H2S        -1.7460   -9.1410    3.1350 H         1 PLP1        0.0000
     46 C3         -0.5210   -6.0510    0.4340 C.3       1 PLP1        0.0000
     47 HX          0.3220   -6.0030    1.1610 H         1 PLP1        0.0000
     48 HY         -0.3400   -5.2300   -0.2990 H         1 PLP1        0.0000
     49 O31        -0.5200   -7.3620   -0.1770 O.3       1 PLP1        0.0000
     50 C31        -1.0790   -7.4180   -1.3820 C.2       1 PLP1        0.0000
     51 O32        -1.5250   -6.4800   -2.0120 O.2       1 PLP1        0.0000
     52 C32        -1.0550   -8.8720   -1.8620 C.3       1 PLP1        0.0000
     53 H2X        -1.6590   -9.4650   -1.1440 H         1 PLP1        0.0000
     54 H2Y        -0.0060   -9.2290   -1.8320 H         1 PLP1        0.0000
     55 C23        -3.5590  -10.1650    2.4540 C.3       1 PLP1        0.0000
     56 H3R        -3.0440  -10.6370    1.5860 H         1 PLP1        0.0000
     57 H3S        -4.5870   -9.8920    2.1230 H         1 PLP1        0.0000
     58 C24        -3.6710  -11.1980    3.5880 C.3       1 PLP1        0.0000
     59 H4R        -4.1820  -10.7270    4.4580 H         1 PLP1        0.0000
     60 H4S        -2.6500  -11.4950    3.9150 H         1 PLP1        0.0000
     61 C25        -4.4520  -12.4560    3.1730 C.3       1 PLP1        0.0000
     62 H5R        -3.9380  -12.9350    2.3110 H         1 PLP1        0.0000
     63 H5S        -5.4690  -12.1560    2.8340 H         1 PLP1        0.0000
     64 C26        -4.5910  -13.4850    4.3070 C.3       1 PLP1        0.0000
     65 H6R        -5.1130  -13.0120    5.1680 H         1 PLP1        0.0000
     66 H6S        -3.5770  -13.7880    4.6500 H         1 PLP1        0.0000
     67 C27        -5.3710  -14.7400    3.8800 C.3       1 PLP1        0.0000
     68 H7R        -4.8600  -15.1960    3.0030 H         1 PLP1        0.0000
     69 H7S        -6.3920  -14.4320    3.5580 H         1 PLP1        0.0000
     70 C28        -5.4860  -15.7830    5.0100 C.3       1 PLP1        0.0000
     71 H8R        -5.9610  -15.2860    5.8850 H         1 PLP1        0.0000
     72 H8S        -4.4590  -16.0750    5.3250 H         1 PLP1        0.0000
     73 C29        -6.2530  -17.0090    4.5740 C.2       1 PLP1        0.0000
     74 H91        -5.8300  -17.5300    3.7000 H         1 PLP1        0.0000
     75 C210       -7.3800  -17.4930    5.1320 C.2       1 PLP1        0.0000
     76 H101       -7.8380  -18.3980    4.7010 H         1 PLP1        0.0000
     77 C211       -8.1110  -16.9260    6.3290 C.3       1 PLP1        0.0000
     78 H11R       -7.3770  -16.5160    7.0580 H         1 PLP1        0.0000
     79 H11S       -8.6220  -17.7560    6.8660 H         1 PLP1        0.0000
     80 C212       -9.1080  -15.8510    5.9750 C.2       1 PLP1        0.0000
     81 H121       -9.1430  -15.5270    4.9220 H         1 PLP1        0.0000
     82 C213       -9.9360  -15.2720    6.8640 C.2       1 PLP1        0.0000
     83 H131       -9.8970  -15.5830    7.9190 H         1 PLP1        0.0000
     84 C214      -10.9310  -14.1960    6.5200 C.3       1 PLP1        0.0000
     85 H14R      -11.6780  -14.5800    5.7880 H         1 PLP1        0.0000
     86 H14S      -10.4210  -13.3280    6.0440 H         1 PLP1        0.0000
     87 C215      -11.6910  -13.6900    7.7610 C.3       1 PLP1        0.0000
     88 H15R      -10.9700  -13.2560    8.4890 H         1 PLP1        0.0000
     89 H15S      -12.2070  -14.5430    8.2570 H         1 PLP1        0.0000
     90 C216      -12.7420  -12.6240    7.4160 C.3       1 PLP1        0.0000
     91 H16R      -13.4720  -13.0520    6.6910 H         1 PLP1        0.0000
     92 H16S      -12.2410  -11.7620    6.9220 H         1 PLP1        0.0000
     93 C217      -13.5000  -12.1230    8.6530 C.3       1 PLP1        0.0000
     94 H17R      -12.7650  -11.7040    9.3770 H         1 PLP1        0.0000
     95 H17S      -13.9940  -12.9920    9.1450 H         1 PLP1        0.0000
     96 C218      -14.5550  -11.0600    8.3360 C.3       1 PLP1        0.0000
     97 H18R      -15.3180  -11.4640    7.6350 H         1 PLP1        0.0000
     98 H18S      -14.0830  -10.1710    7.8650 H         1 PLP1        0.0000
     99 H18T      -15.0710  -10.7340    9.2650 H         1 PLP1        0.0000
    100 C33        -1.6330   -9.0310   -3.2870 C.3       1 PLP1        0.0000
    101 H3X        -1.0130   -8.4560   -4.0110 H         1 PLP1        0.0000
    102 H3Y        -2.6630   -8.6040   -3.3170 H         1 PLP1        0.0000
    103 C34        -1.6990  -10.4970   -3.7330 C.3       1 PLP1        0.0000
    104 H4X        -2.3240  -11.0680   -3.0090 H         1 PLP1        0.0000
    105 H4Y        -0.6760  -10.9350   -3.7160 H         1 PLP1        0.0000
    106 C35        -2.2930  -10.6580   -5.1400 C.3       1 PLP1        0.0000
    107 H5X        -1.6540  -10.1110   -5.8690 H         1 PLP1        0.0000
    108 H5Y        -3.3040  -10.1940   -5.1620 H         1 PLP1        0.0000
    109 C36        -2.4090  -12.1260   -5.5720 C.3       1 PLP1        0.0000
    110 H6X        -3.0570  -12.6690   -4.8480 H         1 PLP1        0.0000
    111 H6Y        -1.4000  -12.5960   -5.5410 H         1 PLP1        0.0000
    112 C37        -2.9920  -12.2870   -6.9830 C.3       1 PLP1        0.0000
    113 H7X        -2.3470  -11.7400   -7.7080 H         1 PLP1        0.0000
    114 H7Y        -4.0040  -11.8260   -7.0170 H         1 PLP1        0.0000
    115 C38        -3.0920  -13.7580   -7.4100 C.3       1 PLP1        0.0000
    116 H8X        -3.7480  -14.3010   -6.6930 H         1 PLP1        0.0000
    117 H8Y        -2.0800  -14.2190   -7.3570 H         1 PLP1        0.0000
    118 C39        -3.6450  -13.9370   -8.8300 C.3       1 PLP1        0.0000
    119 H9X        -2.9940  -13.3890   -9.5480 H         1 PLP1        0.0000
    120 H9Y        -4.6630  -13.4910   -8.8880 H         1 PLP1        0.0000
    121 C310       -3.7160  -15.4130   -9.2430 C.3       1 PLP1        0.0000
    122 H10X       -4.3740  -15.9600   -8.5310 H         1 PLP1        0.0000
    123 H10Y       -2.6980  -15.8580   -9.1710 H         1 PLP1        0.0000
    124 C311       -4.2450  -15.6080  -10.6690 C.3       1 PLP1        0.0000
    125 H11X       -3.5890  -15.0580  -11.3800 H         1 PLP1        0.0000
    126 H11Y       -5.2670  -15.1720  -10.7430 H         1 PLP1        0.0000
    127 C312       -4.2980  -17.0860  -11.0760 C.3       1 PLP1        0.0000
    128 H12X       -4.9580  -17.6370  -10.3690 H         1 PLP1        0.0000
    129 H12Y       -3.2770  -17.5220  -10.9950 H         1 PLP1        0.0000
    130 C313       -4.8160  -17.2830  -12.5050 C.3       1 PLP1        0.0000
    131 H13X       -4.1560  -16.7300  -13.2110 H         1 PLP1        0.0000
    132 H13Y       -5.8380  -16.8500  -12.5860 H         1 PLP1        0.0000
    133 C314       -4.8610  -18.7610  -12.9140 C.3       1 PLP1        0.0000
    134 H14X       -5.5210  -19.3140  -12.2090 H         1 PLP1        0.0000
    135 H14Y       -3.8390  -19.1940  -12.8300 H         1 PLP1        0.0000
    136 C315       -5.3750  -18.9610  -14.3440 C.3       1 PLP1        0.0000
    137 H15X       -4.7140  -18.4000  -15.0440 H         1 PLP1        0.0000
    138 H15Y       -6.3950  -18.5220  -14.4230 H         1 PLP1        0.0000
    139 C316       -5.4230  -20.4310  -14.7660 C.3       1 PLP1        0.0000
    140 H16X       -6.0960  -21.0060  -14.0930 H         1 PLP1        0.0000
    141 H16Y       -4.4090  -20.8830  -14.7160 H         1 PLP1        0.0000
    142 H16Z       -5.8010  -20.5270  -15.8070 H         1 PLP1        0.0000
@<TRIPOS>BOND
     1  142  139 1 
     2  137  136 1 
     3  139  141 1 
     4  139  136 1 
     5  139  140 1 
     6  138  136 1 
     7  136  133 1 
     8  131  130 1 
     9  133  135 1 
    10  133  130 1 
    11  133  134 1 
    12  132  130 1 
    13  130  127 1 
    14  125  124 1 
    15  127  129 1 
    16  127  124 1 
    17  127  128 1 
    18  126  124 1 
    19  124  121 1 
    20  119  118 1 
    21  121  123 1 
    22  121  118 1 
    23  121  122 1 
    24  120  118 1 
    25  118  115 1 
    26  113  112 1 
    27  115  117 1 
    28  115  112 1 
    29  115  116 1 
    30  114  112 1 
    31  112  109 1 
    32  107  106 1 
    33  109  111 1 
    34  109  106 1 
    35  109  110 1 
    36  108  106 1 
    37  106  103 1 
    38  101  100 1 
    39  103  105 1 
    40  103  100 1 
    41  103  104 1 
    42  102  100 1 
    43  100   52 1 
    44   51   50 2 
    45   52   54 1 
    46   52   50 1 
    47   52   53 1 
    48   50   49 1 
    49   29   28 1 
    50    6    5 1 
    51    2    1 1 
    52   48   46 1 
    53   49   46 1 
    54    7    5 1 
    55    7    8 1 
    56   33   28 1 
    57   33   30 1 
    58   28    1 1 
    59   28   24 1 
    60    5    1 1 
    61    5    9 1 
    62   26   27 1 
    63   26   24 1 
    64    1    3 1 
    65   46   47 1 
    66   46   38 1 
    67   39   38 1 
    68   42   41 2 
    69   15   12 2 
    70   17   16 1 
    71   24   16 1 
    72   24   25 1 
    73   11    9 1 
    74   11   12 1 
    75   32   30 2 
    76   13   12 1 
    77   34   30 1 
    78   34   35 1 
    79   38   35 1 
    80   38   40 1 
    81    9   16 1 
    82    9   10 1 
    83   30   31 1 
    84   16   18 1 
    85   12   14 1 
    86   56   55 1 
    87    3    4 1 
    88   22   19 2 
    89   41   40 1 
    90   41   43 1 
    91   35   36 1 
    92   35   37 1 
    93   57   55 1 
    94   62   61 1 
    95   55   43 1 
    96   55   58 1 
    97   18   19 1 
    98   63   61 1 
    99   43   45 1 
   100   43   44 1 
   101   68   67 1 
   102   19   20 1 
   103   19   23 1 
   104   61   58 1 
   105   61   64 1 
   106   69   67 1 
   107   58   60 1 
   108   58   59 1 
   109   20   21 1 
   110   74   73 1 
   111   67   64 1 
   112   67   70 1 
   113   64   66 1 
   114   64   65 1 
   115   73   70 1 
   116   73   75 2 
   117   76   75 1 
   118   81   80 1 
   119   70   72 1 
   120   70   71 1 
   121   75   77 1 
   122   85   84 1 
   123   80   77 1 
   124   80   82 2 
   125   86   84 1 
   126   77   79 1 
   127   77   78 1 
   128   84   82 1 
   129   84   87 1 
   130   91   90 1 
   131   82   83 1 
   132   92   90 1 
   133   90   87 1 
   134   90   93 1 
   135   97   96 1 
   136   87   89 1 
   137   87   88 1 
   138   98   96 1 
   139   96   93 1 
   140   96   99 1 
   141   93   95 1 
   142   93   94 1 
