@<TRIPOS>MOLECULE
C:\Users\Praveer\PycharmProjects\pdb_to_mol2_converter\data\pdb\plpi13.pdb
  138   138     0     0     0
SMALL
GASTEIGER

@<TRIPOS>ATOM
      1 C12         1.8570    0.1220    0.3110 C.3       1 PLP1        0.0000
      2 H2          2.2610   -0.5360   -0.4980 H         1 PLP1        0.0000
      3 O2          2.4270   -0.3070    1.5310 O.3       1 PLP1        0.0000
      4 HO2         3.3650   -0.4520    1.2450 H         1 PLP1        0.0000
      5 C13         2.2840    1.5600    0.0480 C.3       1 PLP1        0.0000
      6 H3          1.9470    1.7750   -0.9980 H         1 PLP1        0.0000
      7 O3          3.7000    1.8180    0.0980 O.3       1 PLP1        0.0000
      8 P3          4.7800    0.8170   -0.6400 P.3       1 PLP1        0.0000
      9 OP32        6.0960    1.5800   -0.6520 O.3       1 PLP1        0.0000
     10 OP33        4.1970    0.5760   -2.0290 O.2       1 PLP1        0.0000
     11 OP34        4.8000   -0.4260    0.2450 O.3       1 PLP1        0.0000
     12 C14         1.6020    2.5540    0.9730 C.3       1 PLP1        0.0000
     13 H4          2.1070    2.4480    1.9690 H         1 PLP1        0.0000
     14 O4          1.8770    3.8640    0.4900 O.3       1 PLP1        0.0000
     15 HO4         2.7830    3.7410    0.1690 H         1 PLP1        0.0000
     16 C15         0.1110    2.3130    1.2140 C.3       1 PLP1        0.0000
     17 H5         -0.3880    2.6930    0.2860 H         1 PLP1        0.0000
     18 O5         -0.4330    3.0630    2.3040 O.3       1 PLP1        0.0000
     19 HO5        -1.3090    2.6790    2.4260 H         1 PLP1        0.0000
     20 C16        -0.3140    0.8560    1.3320 C.3       1 PLP1        0.0000
     21 H6         -0.0060    0.5200    2.3520 H         1 PLP1        0.0000
     22 O6         -1.7330    0.7470    1.2240 O.3       1 PLP1        0.0000
     23 HO6        -1.8710   -0.2160    1.1930 H         1 PLP1        0.0000
     24 C11         0.3430   -0.0400    0.3050 C.3       1 PLP1        0.0000
     25 H1          0.0270    0.3630   -0.6910 H         1 PLP1        0.0000
     26 P          -0.1850   -2.4390    1.5820 P.3       1 PLP1        0.0000
     27 O13        -0.6240   -1.7490    2.8150 O.3       1 PLP1        0.0000
     28 O14         0.9470   -3.3930    1.6600 O.2       1 PLP1        0.0000
     29 O12        -0.0800   -1.4120    0.3000 O.3       1 PLP1        0.0000
     30 O11        -1.4520   -3.2910    1.1310 O.3       1 PLP1        0.0000
     31 C1         -1.9400   -4.3310    1.9900 C.3       1 PLP1        0.0000
     32 HA         -2.9860   -4.1010    2.2910 H         1 PLP1        0.0000
     33 HB         -1.3460   -4.4380    2.9320 H         1 PLP1        0.0000
     34 C2         -1.9220   -5.7060    1.2740 C.3       1 PLP1        0.0000
     35 HS         -2.7190   -5.6770    0.4930 H         1 PLP1        0.0000
     36 O21        -2.1690   -6.7100    2.2800 O.3       1 PLP1        0.0000
     37 C21        -2.7510   -7.8170    1.8670 C.2       1 PLP1        0.0000
     38 O22        -3.2060   -8.0260    0.7510 O.2       1 PLP1        0.0000
     39 C22        -2.7880   -8.8180    3.0240 C.3       1 PLP1        0.0000
     40 H2R        -3.2750   -8.3180    3.8860 H         1 PLP1        0.0000
     41 H2S        -1.7400   -9.0560    3.2980 H         1 PLP1        0.0000
     42 C3         -0.5570   -5.9660    0.5630 C.3       1 PLP1        0.0000
     43 HX          0.2360   -5.8810    1.3410 H         1 PLP1        0.0000
     44 HY         -0.3600   -5.1480   -0.1690 H         1 PLP1        0.0000
     45 O31        -0.4780   -7.2790   -0.0400 O.3       1 PLP1        0.0000
     46 C31        -1.0230   -7.3800   -1.2470 C.2       1 PLP1        0.0000
     47 O32        -1.4930   -6.4620   -1.9040 O.2       1 PLP1        0.0000
     48 C32        -0.9790   -8.8430   -1.6880 C.3       1 PLP1        0.0000
     49 H2X        -1.5460   -9.4280   -0.9340 H         1 PLP1        0.0000
     50 H2Y         0.0790   -9.1740   -1.6750 H         1 PLP1        0.0000
     51 C23        -3.5510  -10.1130    2.6610 C.3       1 PLP1        0.0000
     52 H3R        -3.0380  -10.6210    1.8130 H         1 PLP1        0.0000
     53 H3S        -4.5800   -9.8520    2.3200 H         1 PLP1        0.0000
     54 C24        -3.6620  -11.0940    3.8400 C.3       1 PLP1        0.0000
     55 H4R        -4.1720  -10.5850    4.6880 H         1 PLP1        0.0000
     56 H4S        -2.6400  -11.3760    4.1780 H         1 PLP1        0.0000
     57 C25        -4.4440  -12.3670    3.4740 C.3       1 PLP1        0.0000
     58 H5R        -3.9310  -12.8730    2.6260 H         1 PLP1        0.0000
     59 H5S        -5.4620  -12.0780    3.1290 H         1 PLP1        0.0000
     60 C26        -4.5820  -13.3650    4.6360 C.3       1 PLP1        0.0000
     61 H6R        -5.1050  -12.8720    5.4850 H         1 PLP1        0.0000
     62 H6S        -3.5680  -13.6610    4.9880 H         1 PLP1        0.0000
     63 C27        -5.3610  -14.6300    4.2330 C.3       1 PLP1        0.0000
     64 H7R        -4.8480  -15.1020    3.3660 H         1 PLP1        0.0000
     65 H7S        -6.3810  -14.3280    3.9020 H         1 PLP1        0.0000
     66 C28        -5.4810  -15.6520    5.3810 C.3       1 PLP1        0.0000
     67 H8R        -5.9640  -15.1380    6.2420 H         1 PLP1        0.0000
     68 H8S        -4.4570  -15.9350    5.7110 H         1 PLP1        0.0000
     69 C29        -6.2430  -16.8870    4.9610 C.2       1 PLP1        0.0000
     70 H91        -5.8130  -17.4270    4.1030 H         1 PLP1        0.0000
     71 C210       -7.3750  -17.3600    5.5250 C.2       1 PLP1        0.0000
     72 H101       -7.8290  -18.2730    5.1080 H         1 PLP1        0.0000
     73 C211       -8.1050  -16.7700    6.7080 C.3       1 PLP1        0.0000
     74 H11R       -7.3710  -16.3400    7.4260 H         1 PLP1        0.0000
     75 H11S       -8.6080  -17.5910    7.2670 H         1 PLP1        0.0000
     76 C212       -9.1130  -15.7050    6.3410 C.2       1 PLP1        0.0000
     77 H121       -9.1560  -15.4070    5.2800 H         1 PLP1        0.0000
     78 C213       -9.9310  -15.1080    7.2220 C.2       1 PLP1        0.0000
     79 H131       -9.8820  -15.3880    8.2860 H         1 PLP1        0.0000
     80 C214      -10.9340  -14.0400    6.8610 C.3       1 PLP1        0.0000
     81 H14R      -11.6840  -14.4410    6.1420 H         1 PLP1        0.0000
     82 H14S      -10.4290  -13.1800    6.3650 H         1 PLP1        0.0000
     83 C215      -11.6930  -13.5050    8.0900 C.3       1 PLP1        0.0000
     84 H15R      -10.9720  -13.0520    8.8080 H         1 PLP1        0.0000
     85 H15S      -12.2090  -14.3450    8.6080 H         1 PLP1        0.0000
     86 C216      -12.7420  -12.4480    7.7130 C.3       1 PLP1        0.0000
     87 H16R      -13.4680  -12.8960    6.9970 H         1 PLP1        0.0000
     88 H16S      -12.2370  -11.6020    7.1970 H         1 PLP1        0.0000
     89 C217      -13.5050  -11.9140    8.9330 C.3       1 PLP1        0.0000
     90 H17R      -12.7700  -11.4760    9.6470 H         1 PLP1        0.0000
     91 H17S      -14.0000  -12.7690    9.4460 H         1 PLP1        0.0000
     92 C218      -14.5590  -10.8580    8.5880 C.3       1 PLP1        0.0000
     93 H18R      -15.3210  -11.2780    7.8970 H         1 PLP1        0.0000
     94 H18S      -14.0860   -9.9800    8.0970 H         1 PLP1        0.0000
     95 H18T      -15.0740  -10.5100    9.5090 H         1 PLP1        0.0000
     96 C33        -1.6000   -9.0610   -3.0870 C.3       1 PLP1        0.0000
     97 H3X        -1.0030   -8.5110   -3.8500 H         1 PLP1        0.0000
     98 H3Y        -2.6320   -8.6390   -3.1010 H         1 PLP1        0.0000
     99 C34        -1.6800  -10.5440   -3.4790 C.3       1 PLP1        0.0000
    100 H4X        -2.3010  -11.0830   -2.7290 H         1 PLP1        0.0000
    101 H4Y        -0.6590  -10.9870   -3.4560 H         1 PLP1        0.0000
    102 C35        -2.2860  -10.7520   -4.8760 C.3       1 PLP1        0.0000
    103 H5X        -1.6540  -10.2260   -5.6260 H         1 PLP1        0.0000
    104 H5Y        -3.2980  -10.2890   -4.9040 H         1 PLP1        0.0000
    105 C36        -2.4030  -12.2320   -5.2670 C.3       1 PLP1        0.0000
    106 H6X        -3.0510  -12.7550   -4.5280 H         1 PLP1        0.0000
    107 H6Y        -1.3940  -12.7010   -5.2240 H         1 PLP1        0.0000
    108 C37        -2.9860  -12.4330   -6.6750 C.3       1 PLP1        0.0000
    109 H7X        -2.3410  -11.9050   -7.4130 H         1 PLP1        0.0000
    110 H7Y        -3.9990  -11.9740   -6.7210 H         1 PLP1        0.0000
    111 C38        -3.0850  -13.9140   -7.0650 C.3       1 PLP1        0.0000
    112 H8X        -3.7410  -14.4400   -6.3360 H         1 PLP1        0.0000
    113 H8Y        -2.0720  -14.3730   -7.0020 H         1 PLP1        0.0000
    114 C39        -3.6380  -14.1270   -8.4810 C.3       1 PLP1        0.0000
    115 H9X        -2.9860  -13.5970   -9.2110 H         1 PLP1        0.0000
    116 H9Y        -4.6560  -13.6820   -8.5500 H         1 PLP1        0.0000
    117 C310       -3.7090  -15.6130   -8.8610 C.3       1 PLP1        0.0000
    118 H10X       -4.3680  -16.1430   -8.1380 H         1 PLP1        0.0000
    119 H10Y       -2.6920  -16.0570   -8.7800 H         1 PLP1        0.0000
    120 C311       -4.2390  -15.8400  -10.2830 C.3       1 PLP1        0.0000
    121 H11X       -3.5820  -15.3060  -11.0060 H         1 PLP1        0.0000
    122 H11Y       -5.2600  -15.4050  -10.3680 H         1 PLP1        0.0000
    123 C312       -4.2920  -17.3270  -10.6570 C.3       1 PLP1        0.0000
    124 H12X       -4.9530  -17.8610   -9.9380 H         1 PLP1        0.0000
    125 H12Y       -3.2720  -17.7620  -10.5670 H         1 PLP1        0.0000
    126 C313       -4.8100  -17.5590  -12.0830 C.3       1 PLP1        0.0000
    127 H13X       -4.1510  -17.0220  -12.8010 H         1 PLP1        0.0000
    128 H13Y       -5.8330  -17.1280  -12.1740 H         1 PLP1        0.0000
    129 C314       -4.8560  -19.0460  -12.4570 C.3       1 PLP1        0.0000
    130 H14X       -5.5160  -19.5830  -11.7400 H         1 PLP1        0.0000
    131 H14Y       -3.8340  -19.4770  -12.3640 H         1 PLP1        0.0000
    132 C315       -5.3700  -19.2800  -13.8830 C.3       1 PLP1        0.0000
    133 H15X       -4.7100  -18.7350  -14.5960 H         1 PLP1        0.0000
    134 H15Y       -6.3910  -18.8430  -13.9720 H         1 PLP1        0.0000
    135 C316       -5.4200  -20.7600  -14.2720 C.3       1 PLP1        0.0000
    136 H16X       -6.0920  -21.3190  -13.5860 H         1 PLP1        0.0000
    137 H16Y       -4.4060  -21.2110  -14.2120 H         1 PLP1        0.0000
    138 H16Z       -5.7970  -20.8780  -15.3100 H         1 PLP1        0.0000
@<TRIPOS>BOND
     1  138  135 1 
     2  133  132 1 
     3  135  137 1 
     4  135  132 1 
     5  135  136 1 
     6  134  132 1 
     7  132  129 1 
     8  127  126 1 
     9  129  131 1 
    10  129  126 1 
    11  129  130 1 
    12  128  126 1 
    13  126  123 1 
    14  121  120 1 
    15  123  125 1 
    16  123  120 1 
    17  123  124 1 
    18  122  120 1 
    19  120  117 1 
    20  115  114 1 
    21  117  119 1 
    22  117  114 1 
    23  117  118 1 
    24  116  114 1 
    25  114  111 1 
    26  109  108 1 
    27  111  113 1 
    28  111  108 1 
    29  111  112 1 
    30  110  108 1 
    31  108  105 1 
    32  103  102 1 
    33  105  107 1 
    34  105  102 1 
    35  105  106 1 
    36  104  102 1 
    37  102   99 1 
    38   97   96 1 
    39   99  101 1 
    40   99   96 1 
    41   99  100 1 
    42   98   96 1 
    43   96   48 1 
    44   10    8 2 
    45   47   46 2 
    46   48   50 1 
    47   48   46 1 
    48   48   49 1 
    49   46   45 1 
    50    6    5 1 
    51   25   24 1 
    52    9    8 1 
    53    8    7 1 
    54    8   11 1 
    55    2    1 1 
    56   44   42 1 
    57   45   42 1 
    58    5    7 1 
    59    5    1 1 
    60    5   12 1 
    61   15   14 1 
    62   17   16 1 
    63   29   24 1 
    64   29   26 1 
    65   24    1 1 
    66   24   20 1 
    67    1    3 1 
    68   14   12 1 
    69   35   34 1 
    70   42   34 1 
    71   42   43 1 
    72   38   37 2 
    73   12   16 1 
    74   12   13 1 
    75   30   26 1 
    76   30   31 1 
    77   23   22 1 
    78   16   20 1 
    79   16   18 1 
    80   22   20 1 
    81    4    3 1 
    82   34   31 1 
    83   34   36 1 
    84   20   21 1 
    85   26   28 2 
    86   26   27 1 
    87   52   51 1 
    88   37   36 1 
    89   37   39 1 
    90   31   32 1 
    91   31   33 1 
    92   18   19 1 
    93   53   51 1 
    94   58   57 1 
    95   51   39 1 
    96   51   54 1 
    97   39   41 1 
    98   39   40 1 
    99   59   57 1 
   100   64   63 1 
   101   57   54 1 
   102   57   60 1 
   103   54   56 1 
   104   54   55 1 
   105   65   63 1 
   106   70   69 1 
   107   63   60 1 
   108   63   66 1 
   109   60   62 1 
   110   60   61 1 
   111   69   66 1 
   112   69   71 2 
   113   72   71 1 
   114   77   76 1 
   115   66   68 1 
   116   66   67 1 
   117   71   73 1 
   118   81   80 1 
   119   76   73 1 
   120   76   78 2 
   121   82   80 1 
   122   73   75 1 
   123   73   74 1 
   124   80   78 1 
   125   80   83 1 
   126   87   86 1 
   127   88   86 1 
   128   78   79 1 
   129   86   83 1 
   130   86   89 1 
   131   93   92 1 
   132   83   85 1 
   133   83   84 1 
   134   94   92 1 
   135   92   89 1 
   136   92   95 1 
   137   89   91 1 
   138   89   90 1 
