@<TRIPOS>MOLECULE
C:\Users\Praveer\PycharmProjects\pdb_to_mol2_converter\data\pdb\plpi2b.pdb
  142   142     0     0     0
SMALL
GASTEIGER

@<TRIPOS>ATOM
      1 C12         1.6680    0.0020    0.3850 C.3       1 PLP1        0.0000
      2 H2          2.1190   -0.7490   -0.3080 H         1 PLP1        0.0000
      3 O2          2.0490   -0.3440    1.7130 O.3       1 PLP1        0.0000
      4 HO2         1.8810   -1.2980    1.8000 H         1 PLP1        0.0000
      5 C13         2.1930    1.3490   -0.0600 C.3       1 PLP1        0.0000
      6 H3          1.7270    1.5440   -1.0630 H         1 PLP1        0.0000
      7 O3          3.6310    1.2780   -0.1690 O.3       1 PLP1        0.0000
      8 P3          4.3730    1.9320   -1.5010 P.3       1 PLP1        0.0000
      9 OP32        3.8820    3.3760   -1.5210 O.3       1 PLP1        0.0000
     10 OP33        5.8760    1.8160   -1.2600 O.3       1 PLP1        0.0000
     11 OP34        3.8890    1.1170   -2.6920 O.2       1 PLP1        0.0000
     12 C14         1.7150    2.4400    0.8760 C.3       1 PLP1        0.0000
     13 H4          2.2390    2.2730    1.8490 H         1 PLP1        0.0000
     14 O4          2.1130    3.7220    0.3940 O.3       1 PLP1        0.0000
     15 HO4         2.8040    3.5540   -0.3010 H         1 PLP1        0.0000
     16 C15         0.2000    2.3960    1.1830 C.3       1 PLP1        0.0000
     17 H5         -0.1840    3.0070    0.3220 H         1 PLP1        0.0000
     18 O5         -0.1060    3.0840    2.4170 O.3       1 PLP1        0.0000
     19 P5         -1.5810    3.7300    2.7310 P.3       1 PLP1        0.0000
     20 OP52       -1.7510    4.7100    1.4840 O.3       1 PLP1        0.0000
     21 HP52       -1.5190    4.2230    0.6860 H         1 PLP1        0.0000
     22 OP53       -2.6500    2.6560    2.6160 O.2       1 PLP1        0.0000
     23 OP54       -1.5480    4.5500    4.0140 O.3       1 PLP1        0.0000
     24 C16        -0.5390    1.0480    1.0000 C.3       1 PLP1        0.0000
     25 H6         -0.6160    0.6300    2.0350 H         1 PLP1        0.0000
     26 O6         -1.8710    1.2590    0.5400 O.3       1 PLP1        0.0000
     27 HO6        -2.3340    1.6330    1.3190 H         1 PLP1        0.0000
     28 C11         0.1640   -0.0340    0.1900 C.3       1 PLP1        0.0000
     29 H1          0.0150    0.2850   -0.8740 H         1 PLP1        0.0000
     30 P          -0.4080   -2.3730    1.5090 P.3       1 PLP1        0.0000
     31 O13        -0.9850   -1.8090    2.7450 O.3       1 PLP1        0.0000
     32 O14         0.9440   -2.9820    1.6150 O.2       1 PLP1        0.0000
     33 O12        -0.4390   -1.3310    0.2490 O.3       1 PLP1        0.0000
     34 O11        -1.3980   -3.4940    0.9950 O.3       1 PLP1        0.0000
     35 C1         -1.8460   -4.5110    1.8850 C.3       1 PLP1        0.0000
     36 HA         -2.8800   -4.2830    2.2220 H         1 PLP1        0.0000
     37 HB         -1.2000   -4.6170    2.7950 H         1 PLP1        0.0000
     38 C2         -1.8300   -5.8590    1.1470 C.3       1 PLP1        0.0000
     39 HS         -2.6380   -5.8230    0.3770 H         1 PLP1        0.0000
     40 O21        -2.0420   -6.8790    2.1400 O.3       1 PLP1        0.0000
     41 C21        -2.6760   -7.9520    1.7160 C.2       1 PLP1        0.0000
     42 O22        -3.1320   -8.1400    0.6160 O.2       1 PLP1        0.0000
     43 C22        -2.7530   -8.9400    2.8830 C.3       1 PLP1        0.0000
     44 H2R        -3.2450   -8.4290    3.7350 H         1 PLP1        0.0000
     45 H2S        -1.7160   -9.2050    3.1740 H         1 PLP1        0.0000
     46 C3         -0.4670   -6.0670    0.4180 C.3       1 PLP1        0.0000
     47 HX          0.3300   -5.9860    1.1910 H         1 PLP1        0.0000
     48 HY         -0.2950   -5.2270   -0.2960 H         1 PLP1        0.0000
     49 O31        -0.3780   -7.3600   -0.2220 O.3       1 PLP1        0.0000
     50 C31        -0.9630   -7.4190   -1.4150 C.2       1 PLP1        0.0000
     51 O32        -1.4370   -6.4840   -2.0320 O.2       1 PLP1        0.0000
     52 C32        -0.9530   -8.8690   -1.8900 C.3       1 PLP1        0.0000
     53 H2X        -1.5330   -9.4620   -1.1530 H         1 PLP1        0.0000
     54 H2Y         0.0960   -9.2270   -1.8970 H         1 PLP1        0.0000
     55 C23        -3.5400  -10.2040    2.4860 C.3       1 PLP1        0.0000
     56 H3R        -3.0330  -10.7050    1.6290 H         1 PLP1        0.0000
     57 H3S        -4.5630   -9.9180    2.1490 H         1 PLP1        0.0000
     58 C24        -3.6690  -11.2070    3.6360 C.3       1 PLP1        0.0000
     59 H4R        -4.1890  -10.7230    4.4940 H         1 PLP1        0.0000
     60 H4S        -2.6550  -11.5110    3.9800 H         1 PLP1        0.0000
     61 C25        -4.4530  -12.4550    3.2130 C.3       1 PLP1        0.0000
     62 H5R        -3.9370  -12.9330    2.3500 H         1 PLP1        0.0000
     63 H5S        -5.4680  -12.1500    2.8710 H         1 PLP1        0.0000
     64 C26        -4.5900  -13.4780    4.3450 C.3       1 PLP1        0.0000
     65 H6R        -5.1160  -13.0030    5.2050 H         1 PLP1        0.0000
     66 H6S        -3.5760  -13.7770    4.6910 H         1 PLP1        0.0000
     67 C27        -5.3660  -14.7270    3.9070 C.3       1 PLP1        0.0000
     68 H7R        -4.8440  -15.1790    3.0330 H         1 PLP1        0.0000
     69 H7S        -6.3810  -14.4140    3.5720 H         1 PLP1        0.0000
     70 C28        -5.4880  -15.7670    5.0340 C.3       1 PLP1        0.0000
     71 H8R        -5.9600  -15.2670    5.9110 H         1 PLP1        0.0000
     72 H8S        -4.4620  -16.0650    5.3460 H         1 PLP1        0.0000
     73 C29        -6.2620  -16.9830    4.5890 C.2       1 PLP1        0.0000
     74 H91        -5.8520  -17.4890    3.7010 H         1 PLP1        0.0000
     75 C210       -7.3870  -17.4710    5.1500 C.2       1 PLP1        0.0000
     76 H101       -7.8480  -18.3690    4.7100 H         1 PLP1        0.0000
     77 C211       -8.1110  -16.9160    6.3540 C.3       1 PLP1        0.0000
     78 H11R       -7.3770  -16.5060    7.0850 H         1 PLP1        0.0000
     79 H11S       -8.6210  -17.7500    6.8860 H         1 PLP1        0.0000
     80 C212       -9.1130  -15.8440    6.0000 C.2       1 PLP1        0.0000
     81 H121       -9.1680  -15.5410    4.9410 H         1 PLP1        0.0000
     82 C213       -9.9260  -15.2550    6.8910 C.2       1 PLP1        0.0000
     83 H131       -9.8730  -15.5510    7.9500 H         1 PLP1        0.0000
     84 C214      -10.9320  -14.1880    6.5440 C.3       1 PLP1        0.0000
     85 H14R      -11.6770  -14.5830    5.8170 H         1 PLP1        0.0000
     86 H14S      -10.4280  -13.3200    6.0620 H         1 PLP1        0.0000
     87 C215      -11.6900  -13.6830    7.7870 C.3       1 PLP1        0.0000
     88 H15R      -10.9650  -13.2480    8.5120 H         1 PLP1        0.0000
     89 H15S      -12.2030  -14.5380    8.2830 H         1 PLP1        0.0000
     90 C216      -12.7420  -12.6170    7.4460 C.3       1 PLP1        0.0000
     91 H16R      -13.4730  -13.0450    6.7240 H         1 PLP1        0.0000
     92 H16S      -12.2420  -11.7550    6.9520 H         1 PLP1        0.0000
     93 C217      -13.5030  -12.1110    8.6800 C.3       1 PLP1        0.0000
     94 H17R      -12.7710  -11.6870    9.4050 H         1 PLP1        0.0000
     95 H17S      -14.0020  -12.9740    9.1760 H         1 PLP1        0.0000
     96 C218      -14.5520  -11.0480    8.3420 C.3       1 PLP1        0.0000
     97 H18R      -15.3060  -11.4590    7.6370 H         1 PLP1        0.0000
     98 H18S      -14.0710  -10.1670    7.8660 H         1 PLP1        0.0000
     99 H18T      -15.0780  -10.7090    9.2610 H         1 PLP1        0.0000
    100 C33        -1.5850   -9.0160   -3.2890 C.3       1 PLP1        0.0000
    101 H3X        -0.9820   -8.4520   -4.0370 H         1 PLP1        0.0000
    102 H3Y        -2.6100   -8.5750   -3.2840 H         1 PLP1        0.0000
    103 C34        -1.6870  -10.4820   -3.7180 C.3       1 PLP1        0.0000
    104 H4X        -2.3170  -11.0320   -2.9820 H         1 PLP1        0.0000
    105 H4Y        -0.6730  -10.9400   -3.7060 H         1 PLP1        0.0000
    106 C35        -2.2950  -10.6390   -5.1170 C.3       1 PLP1        0.0000
    107 H5X        -1.6600  -10.0940   -5.8510 H         1 PLP1        0.0000
    108 H5Y        -3.3050  -10.1720   -5.1300 H         1 PLP1        0.0000
    109 C36        -2.4110  -12.1080   -5.5400 C.3       1 PLP1        0.0000
    110 H6X        -3.0590  -12.6450   -4.8120 H         1 PLP1        0.0000
    111 H6Y        -1.4010  -12.5750   -5.5040 H         1 PLP1        0.0000
    112 C37        -2.9910  -12.2760   -6.9500 C.3       1 PLP1        0.0000
    113 H7X        -2.3450  -11.7310   -7.6760 H         1 PLP1        0.0000
    114 H7Y        -4.0040  -11.8170   -6.9870 H         1 PLP1        0.0000
    115 C38        -3.0850  -13.7490   -7.3650 C.3       1 PLP1        0.0000
    116 H8X        -3.7410  -14.2890   -6.6460 H         1 PLP1        0.0000
    117 H8Y        -2.0720  -14.2060   -7.3080 H         1 PLP1        0.0000
    118 C39        -3.6370  -13.9350   -8.7850 C.3       1 PLP1        0.0000
    119 H9X        -2.9850  -13.3880   -9.5030 H         1 PLP1        0.0000
    120 H9Y        -4.6550  -13.4890   -8.8440 H         1 PLP1        0.0000
    121 C310       -3.7070  -15.4120   -9.1940 C.3       1 PLP1        0.0000
    122 H10X       -4.3670  -15.9560   -8.4820 H         1 PLP1        0.0000
    123 H10Y       -2.6890  -15.8570   -9.1210 H         1 PLP1        0.0000
    124 C311       -4.2360  -15.6070  -10.6200 C.3       1 PLP1        0.0000
    125 H11X       -3.5800  -15.0580  -11.3310 H         1 PLP1        0.0000
    126 H11Y       -5.2570  -15.1710  -10.6950 H         1 PLP1        0.0000
    127 C312       -4.2900  -17.0860  -11.0280 C.3       1 PLP1        0.0000
    128 H12X       -4.9510  -17.6350  -10.3200 H         1 PLP1        0.0000
    129 H12Y       -3.2690  -17.5230  -10.9460 H         1 PLP1        0.0000
    130 C313       -4.8080  -17.2860  -12.4580 C.3       1 PLP1        0.0000
    131 H13X       -4.1480  -16.7340  -13.1640 H         1 PLP1        0.0000
    132 H13Y       -5.8300  -16.8530  -12.5390 H         1 PLP1        0.0000
    133 C314       -4.8530  -18.7640  -12.8650 C.3       1 PLP1        0.0000
    134 H14X       -5.5130  -19.3170  -12.1590 H         1 PLP1        0.0000
    135 H14Y       -3.8310  -19.1970  -12.7810 H         1 PLP1        0.0000
    136 C315       -5.3680  -18.9670  -14.2950 C.3       1 PLP1        0.0000
    137 H15X       -4.7080  -18.4070  -14.9960 H         1 PLP1        0.0000
    138 H15Y       -6.3890  -18.5280  -14.3750 H         1 PLP1        0.0000
    139 C316       -5.4180  -20.4380  -14.7170 C.3       1 PLP1        0.0000
    140 H16X       -6.0900  -21.0120  -14.0440 H         1 PLP1        0.0000
    141 H16Y       -4.4040  -20.8900  -14.6680 H         1 PLP1        0.0000
    142 H16Z       -5.7960  -20.5340  -15.7570 H         1 PLP1        0.0000
@<TRIPOS>BOND
     1  142  139 1 
     2  137  136 1 
     3  139  141 1 
     4  139  136 1 
     5  139  140 1 
     6  138  136 1 
     7  136  133 1 
     8  131  130 1 
     9  133  135 1 
    10  133  130 1 
    11  133  134 1 
    12  132  130 1 
    13  130  127 1 
    14  125  124 1 
    15  127  129 1 
    16  127  124 1 
    17  127  128 1 
    18  126  124 1 
    19  124  121 1 
    20  119  118 1 
    21  121  123 1 
    22  121  118 1 
    23  121  122 1 
    24  120  118 1 
    25  118  115 1 
    26  113  112 1 
    27  115  117 1 
    28  115  112 1 
    29  115  116 1 
    30  114  112 1 
    31  112  109 1 
    32  107  106 1 
    33  109  111 1 
    34  109  106 1 
    35  109  110 1 
    36  108  106 1 
    37  106  103 1 
    38  101  100 1 
    39  103  105 1 
    40  103  100 1 
    41  103  104 1 
    42  100  102 1 
    43  100   52 1 
    44   11    8 2 
    45   51   50 2 
    46   54   52 1 
    47   52   50 1 
    48   52   53 1 
    49    9    8 1 
    50    8   10 1 
    51    8    7 1 
    52   50   49 1 
    53    6    5 1 
    54   29   28 1 
    55    2    1 1 
    56   15   14 1 
    57   48   46 1 
    58   49   46 1 
    59    7    5 1 
    60    5    1 1 
    61    5   12 1 
    62   28   33 1 
    63   28    1 1 
    64   28   24 1 
    65   33   30 1 
    66   17   16 1 
    67   39   38 1 
    68    1    3 1 
    69   14   12 1 
    70   46   38 1 
    71   46   47 1 
    72   26   24 1 
    73   26   27 1 
    74   42   41 2 
    75   21   20 1 
    76   12   16 1 
    77   12   13 1 
    78   34   30 1 
    79   34   35 1 
    80   24   16 1 
    81   24   25 1 
    82   38   35 1 
    83   38   40 1 
    84   16   18 1 
    85   20   19 1 
    86   30   32 2 
    87   30   31 1 
    88   56   55 1 
    89    3    4 1 
    90   41   40 1 
    91   41   43 1 
    92   35   36 1 
    93   35   37 1 
    94   57   55 1 
    95   62   61 1 
    96   18   19 1 
    97   55   43 1 
    98   55   58 1 
    99   22   19 2 
   100   19   23 1 
   101   63   61 1 
   102   43   45 1 
   103   43   44 1 
   104   68   67 1 
   105   61   58 1 
   106   61   64 1 
   107   69   67 1 
   108   58   60 1 
   109   58   59 1 
   110   74   73 1 
   111   67   64 1 
   112   67   70 1 
   113   64   66 1 
   114   64   65 1 
   115   73   70 1 
   116   73   75 2 
   117   76   75 1 
   118   81   80 1 
   119   70   72 1 
   120   70   71 1 
   121   75   77 1 
   122   85   84 1 
   123   80   77 1 
   124   80   82 2 
   125   86   84 1 
   126   77   79 1 
   127   77   78 1 
   128   84   82 1 
   129   84   87 1 
   130   91   90 1 
   131   82   83 1 
   132   92   90 1 
   133   90   87 1 
   134   90   93 1 
   135   97   96 1 
   136   87   89 1 
   137   87   88 1 
   138   98   96 1 
   139   96   93 1 
   140   96   99 1 
   141   93   95 1 
   142   93   94 1 
