@<TRIPOS>MOLECULE
C:\Users\Praveer\PycharmProjects\pdb_to_mol2_converter\data\pdb\plpi2d.pdb
  142   142     0     0     0
SMALL
GASTEIGER

@<TRIPOS>ATOM
      1 C12         1.8340    0.0200    0.0970 C.3       1 PLP1        0.0000
      2 H2          2.1140   -0.6470   -0.7530 H         1 PLP1        0.0000
      3 O2          2.4150   -0.5260    1.2660 O.3       1 PLP1        0.0000
      4 HO2         3.3520   -0.4050    1.0530 H         1 PLP1        0.0000
      5 C13         2.4470    1.4030   -0.1270 C.3       1 PLP1        0.0000
      6 H3          2.0620    1.8170   -1.0870 H         1 PLP1        0.0000
      7 O3          3.8770    1.2750   -0.1850 O.3       1 PLP1        0.0000
      8 P3          4.7550    0.8080   -1.5120 P.3       1 PLP1        0.0000
      9 OP32        5.0720    2.0780   -2.2950 O.3       1 PLP1        0.0000
     10 OP33        5.9990    0.1450   -0.9270 O.3       1 PLP1        0.0000
     11 OP34        3.8910   -0.1600   -2.3130 O.2       1 PLP1        0.0000
     12 C14         2.0160    2.3470    1.0090 C.3       1 PLP1        0.0000
     13 H4          2.4070    1.8480    1.9320 H         1 PLP1        0.0000
     14 O4          2.6180    3.6440    0.9820 O.3       1 PLP1        0.0000
     15 P4          2.2390    4.9010    0.0130 P.3       1 PLP1        0.0000
     16 OP42        1.5120    5.7240    1.1660 O.3       1 PLP1        0.0000
     17 HP42        1.8480    6.6220    1.0640 H         1 PLP1        0.0000
     18 OP43        1.1740    4.6230   -1.0410 O.2       1 PLP1        0.0000
     19 OP44        3.4200    5.7890   -0.3240 O.3       1 PLP1        0.0000
     20 C15         0.4990    2.3890    1.2260 C.3       1 PLP1        0.0000
     21 H5          0.0810    2.9610    0.3670 H         1 PLP1        0.0000
     22 O5          0.2090    3.1330    2.4060 O.3       1 PLP1        0.0000
     23 HO5         0.8190    3.8870    2.3080 H         1 PLP1        0.0000
     24 C16        -0.2350    1.0430    1.1950 C.3       1 PLP1        0.0000
     25 H6         -0.1000    0.6120    2.2150 H         1 PLP1        0.0000
     26 O6         -1.6390    1.1870    0.9730 O.3       1 PLP1        0.0000
     27 HO6        -1.9040    0.3040    0.6870 H         1 PLP1        0.0000
     28 C11         0.3070    0.0410    0.1880 C.3       1 PLP1        0.0000
     29 H1          0.0150    0.4710   -0.8050 H         1 PLP1        0.0000
     30 P          -0.2970   -2.3530    1.4370 P.3       1 PLP1        0.0000
     31 O13        -0.5900   -1.7570    2.7610 O.3       1 PLP1        0.0000
     32 O14         0.8540   -3.2740    1.3100 O.2       1 PLP1        0.0000
     33 O12        -0.3560   -1.2370    0.2250 O.3       1 PLP1        0.0000
     34 O11        -1.5680   -3.2550    1.0860 O.3       1 PLP1        0.0000
     35 C1         -1.8780   -4.3650    1.9430 C.3       1 PLP1        0.0000
     36 HA         -2.8950   -4.2040    2.3590 H         1 PLP1        0.0000
     37 HB         -1.1780   -4.4730    2.8110 H         1 PLP1        0.0000
     38 C2         -1.8760   -5.7120    1.1720 C.3       1 PLP1        0.0000
     39 HS         -2.6890   -5.6480    0.4110 H         1 PLP1        0.0000
     40 O21        -2.1110   -6.7550    2.1440 O.3       1 PLP1        0.0000
     41 C21        -2.7250   -7.8380    1.7130 C.2       1 PLP1        0.0000
     42 O22        -3.2010   -8.0130    0.6030 O.2       1 PLP1        0.0000
     43 C22        -2.7680   -8.8650    2.8490 C.3       1 PLP1        0.0000
     44 H2R        -3.2550   -8.3840    3.7220 H         1 PLP1        0.0000
     45 H2S        -1.7220   -9.1170    3.1190 H         1 PLP1        0.0000
     46 C3         -0.5320   -5.9530    0.4150 C.3       1 PLP1        0.0000
     47 HX          0.2850   -5.8700    1.1670 H         1 PLP1        0.0000
     48 HY         -0.3660   -5.1230   -0.3110 H         1 PLP1        0.0000
     49 O31        -0.4650   -7.2630   -0.2030 O.3       1 PLP1        0.0000
     50 C31        -1.0440   -7.3500   -1.4000 C.2       1 PLP1        0.0000
     51 O32        -1.5360   -6.4380   -2.0270 O.2       1 PLP1        0.0000
     52 C32        -0.9930   -8.8090   -1.8690 C.3       1 PLP1        0.0000
     53 H2X        -1.5640   -9.4190   -1.1380 H         1 PLP1        0.0000
     54 H2Y         0.0650   -9.1370   -1.8640 H         1 PLP1        0.0000
     55 C23        -3.5380  -10.1470    2.4560 C.3       1 PLP1        0.0000
     56 H3R        -3.0270  -10.6380    1.5970 H         1 PLP1        0.0000
     57 H3S        -4.5660   -9.8750    2.1230 H         1 PLP1        0.0000
     58 C24        -3.6550  -11.1610    3.6050 C.3       1 PLP1        0.0000
     59 H4R        -4.1700  -10.6810    4.4680 H         1 PLP1        0.0000
     60 H4S        -2.6370  -11.4590    3.9400 H         1 PLP1        0.0000
     61 C25        -4.4370  -12.4180    3.1930 C.3       1 PLP1        0.0000
     62 H5R        -3.9220  -12.9010    2.3320 H         1 PLP1        0.0000
     63 H5S        -5.4540  -12.1180    2.8520 H         1 PLP1        0.0000
     64 C26        -4.5780  -13.4430    4.3280 C.3       1 PLP1        0.0000
     65 H6R        -5.1010  -12.9680    5.1880 H         1 PLP1        0.0000
     66 H6S        -3.5640  -13.7480    4.6730 H         1 PLP1        0.0000
     67 C27        -5.3590  -14.6950    3.8970 C.3       1 PLP1        0.0000
     68 H7R        -4.8410  -15.1530    3.0240 H         1 PLP1        0.0000
     69 H7S        -6.3760  -14.3850    3.5660 H         1 PLP1        0.0000
     70 C28        -5.4820  -15.7340    5.0280 C.3       1 PLP1        0.0000
     71 H8R        -5.9640  -15.2360    5.8990 H         1 PLP1        0.0000
     72 H8S        -4.4560  -16.0230    5.3520 H         1 PLP1        0.0000
     73 C29        -6.2440  -16.9580    4.5840 C.2       1 PLP1        0.0000
     74 H91        -5.8240  -17.4670    3.7030 H         1 PLP1        0.0000
     75 C210       -7.3690  -17.4520    5.1410 C.2       1 PLP1        0.0000
     76 H101       -7.8230  -18.3540    4.7010 H         1 PLP1        0.0000
     77 C211       -8.0990  -16.8980    6.3430 C.3       1 PLP1        0.0000
     78 H11R       -7.3680  -16.4830    7.0730 H         1 PLP1        0.0000
     79 H11S       -8.6030  -17.7350    6.8770 H         1 PLP1        0.0000
     80 C212       -9.1060  -15.8330    5.9960 C.2       1 PLP1        0.0000
     81 H121       -9.1630  -15.5170    4.9420 H         1 PLP1        0.0000
     82 C213       -9.9250  -15.2540    6.8930 C.2       1 PLP1        0.0000
     83 H131       -9.8700  -15.5590    7.9490 H         1 PLP1        0.0000
     84 C214      -10.9310  -14.1900    6.5490 C.3       1 PLP1        0.0000
     85 H14R      -11.6770  -14.5870    5.8230 H         1 PLP1        0.0000
     86 H14S      -10.4290  -13.3210    6.0660 H         1 PLP1        0.0000
     87 C215      -11.6910  -13.6820    7.7890 C.3       1 PLP1        0.0000
     88 H15R      -10.9700  -13.2440    8.5150 H         1 PLP1        0.0000
     89 H15S      -12.2080  -14.5340    8.2860 H         1 PLP1        0.0000
     90 C216      -12.7420  -12.6160    7.4410 C.3       1 PLP1        0.0000
     91 H16R      -13.4710  -13.0450    6.7180 H         1 PLP1        0.0000
     92 H16S      -12.2390  -11.7560    6.9460 H         1 PLP1        0.0000
     93 C217      -13.5010  -12.1110    8.6750 C.3       1 PLP1        0.0000
     94 H17R      -12.7680  -11.6880    9.4000 H         1 PLP1        0.0000
     95 H17S      -13.9980  -12.9760    9.1710 H         1 PLP1        0.0000
     96 C218      -14.5510  -11.0490    8.3440 C.3       1 PLP1        0.0000
     97 H18R      -15.3080  -11.4580    7.6410 H         1 PLP1        0.0000
     98 H18S      -14.0730  -10.1650    7.8700 H         1 PLP1        0.0000
     99 H18T      -15.0720  -10.7150    9.2670 H         1 PLP1        0.0000
    100 C33        -1.6050   -8.9870   -3.2770 C.3       1 PLP1        0.0000
    101 H3X        -1.0010   -8.4200   -4.0230 H         1 PLP1        0.0000
    102 H3Y        -2.6360   -8.5620   -3.2900 H         1 PLP1        0.0000
    103 C34        -1.6840  -10.4590   -3.7030 C.3       1 PLP1        0.0000
    104 H4X        -2.3080  -11.0140   -2.9670 H         1 PLP1        0.0000
    105 H4Y        -0.6640  -10.9030   -3.6870 H         1 PLP1        0.0000
    106 C35        -2.2870  -10.6320   -5.1040 C.3       1 PLP1        0.0000
    107 H5X        -1.6530  -10.0890   -5.8410 H         1 PLP1        0.0000
    108 H5Y        -3.2990  -10.1700   -5.1230 H         1 PLP1        0.0000
    109 C36        -2.4000  -12.1040   -5.5250 C.3       1 PLP1        0.0000
    110 H6X        -3.0480  -12.6420   -4.7970 H         1 PLP1        0.0000
    111 H6Y        -1.3900  -12.5710   -5.4900 H         1 PLP1        0.0000
    112 C37        -2.9820  -12.2740   -6.9360 C.3       1 PLP1        0.0000
    113 H7X        -2.3380  -11.7300   -7.6620 H         1 PLP1        0.0000
    114 H7Y        -3.9950  -11.8150   -6.9720 H         1 PLP1        0.0000
    115 C38        -3.0800  -13.7470   -7.3570 C.3       1 PLP1        0.0000
    116 H8X        -3.7370  -14.2880   -6.6380 H         1 PLP1        0.0000
    117 H8Y        -2.0680  -14.2060   -7.3020 H         1 PLP1        0.0000
    118 C39        -3.6330  -13.9310   -8.7780 C.3       1 PLP1        0.0000
    119 H9X        -2.9820  -13.3840   -9.4950 H         1 PLP1        0.0000
    120 H9Y        -4.6510  -13.4840   -8.8350 H         1 PLP1        0.0000
    121 C310       -3.7060  -15.4080   -9.1920 C.3       1 PLP1        0.0000
    122 H10X       -4.3660  -15.9530   -8.4800 H         1 PLP1        0.0000
    123 H10Y       -2.6890  -15.8540   -9.1190 H         1 PLP1        0.0000
    124 C311       -4.2360  -15.6050  -10.6190 C.3       1 PLP1        0.0000
    125 H11X       -3.5800  -15.0550  -11.3300 H         1 PLP1        0.0000
    126 H11Y       -5.2570  -15.1680  -10.6930 H         1 PLP1        0.0000
    127 C312       -4.2900  -17.0840  -11.0280 C.3       1 PLP1        0.0000
    128 H12X       -4.9510  -17.6340  -10.3210 H         1 PLP1        0.0000
    129 H12Y       -3.2700  -17.5210  -10.9470 H         1 PLP1        0.0000
    130 C313       -4.8080  -17.2860  -12.4590 C.3       1 PLP1        0.0000
    131 H13X       -4.1490  -16.7340  -13.1660 H         1 PLP1        0.0000
    132 H13Y       -5.8310  -16.8540  -12.5410 H         1 PLP1        0.0000
    133 C314       -4.8540  -18.7650  -12.8670 C.3       1 PLP1        0.0000
    134 H14X       -5.5140  -19.3180  -12.1620 H         1 PLP1        0.0000
    135 H14Y       -3.8320  -19.1980  -12.7840 H         1 PLP1        0.0000
    136 C315       -5.3690  -18.9700  -14.2980 C.3       1 PLP1        0.0000
    137 H15X       -4.7090  -18.4110  -15.0000 H         1 PLP1        0.0000
    138 H15Y       -6.3900  -18.5320  -14.3780 H         1 PLP1        0.0000
    139 C316       -5.4190  -20.4400  -14.7190 C.3       1 PLP1        0.0000
    140 H16X       -6.0910  -21.0150  -14.0470 H         1 PLP1        0.0000
    141 H16Y       -4.4050  -20.8930  -14.6710 H         1 PLP1        0.0000
    142 H16Z       -5.7970  -20.5340  -15.7600 H         1 PLP1        0.0000
@<TRIPOS>BOND
     1  142  139 1 
     2  137  136 1 
     3  139  141 1 
     4  139  136 1 
     5  139  140 1 
     6  138  136 1 
     7  136  133 1 
     8  131  130 1 
     9  133  135 1 
    10  133  130 1 
    11  133  134 1 
    12  132  130 1 
    13  130  127 1 
    14  125  124 1 
    15  127  129 1 
    16  127  124 1 
    17  127  128 1 
    18  126  124 1 
    19  124  121 1 
    20  119  118 1 
    21  121  123 1 
    22  121  118 1 
    23  121  122 1 
    24  120  118 1 
    25  118  115 1 
    26  113  112 1 
    27  115  117 1 
    28  115  112 1 
    29  115  116 1 
    30  114  112 1 
    31  112  109 1 
    32  107  106 1 
    33  109  111 1 
    34  109  106 1 
    35  109  110 1 
    36  108  106 1 
    37  106  103 1 
    38  101  100 1 
    39  103  105 1 
    40  103  100 1 
    41  103  104 1 
    42  102  100 1 
    43  100   52 1 
    44   11    8 2 
    45    9    8 1 
    46   51   50 2 
    47   52   54 1 
    48   52   50 1 
    49   52   53 1 
    50    8   10 1 
    51    8    7 1 
    52   50   49 1 
    53    6    5 1 
    54   18   15 2 
    55   29   28 1 
    56    2    1 1 
    57   19   15 1 
    58   48   46 1 
    59   49   46 1 
    60    7    5 1 
    61    5    1 1 
    62    5   12 1 
    63   15   14 1 
    64   15   16 1 
    65    1   28 1 
    66    1    3 1 
    67   28   33 1 
    68   28   24 1 
    69   33   30 1 
    70   21   20 1 
    71   39   38 1 
    72   46   47 1 
    73   46   38 1 
    74   42   41 2 
    75   27   26 1 
    76   26   24 1 
    77   14   12 1 
    78   12   20 1 
    79   12   13 1 
    80    4    3 1 
    81   17   16 1 
    82   34   30 1 
    83   34   35 1 
    84   38   35 1 
    85   38   40 1 
    86   24   20 1 
    87   24   25 1 
    88   20   22 1 
    89   32   30 2 
    90   30   31 1 
    91   56   55 1 
    92   41   40 1 
    93   41   43 1 
    94   35   36 1 
    95   35   37 1 
    96   57   55 1 
    97   23   22 1 
    98   62   61 1 
    99   55   43 1 
   100   55   58 1 
   101   43   45 1 
   102   43   44 1 
   103   63   61 1 
   104   68   67 1 
   105   61   58 1 
   106   61   64 1 
   107   69   67 1 
   108   58   60 1 
   109   58   59 1 
   110   74   73 1 
   111   67   64 1 
   112   67   70 1 
   113   64   66 1 
   114   64   65 1 
   115   73   70 1 
   116   73   75 2 
   117   76   75 1 
   118   81   80 1 
   119   70   72 1 
   120   70   71 1 
   121   75   77 1 
   122   85   84 1 
   123   80   77 1 
   124   80   82 2 
   125   86   84 1 
   126   77   79 1 
   127   77   78 1 
   128   84   82 1 
   129   84   87 1 
   130   91   90 1 
   131   82   83 1 
   132   92   90 1 
   133   90   87 1 
   134   90   93 1 
   135   97   96 1 
   136   87   89 1 
   137   87   88 1 
   138   98   96 1 
   139   96   93 1 
   140   96   99 1 
   141   93   95 1 
   142   93   94 1 
