@<TRIPOS>MOLECULE
C:\Users\Praveer\PycharmProjects\pdb_to_mol2_converter\data\pdb\plpi2a.pdb
  142   142     0     0     0
SMALL
GASTEIGER

@<TRIPOS>ATOM
      1 C12         1.7060    0.0890    0.3680 C.3       1 PLP1        0.0000
      2 H2          2.1530   -0.6120   -0.3780 H         1 PLP1        0.0000
      3 O2          2.1930   -0.3050    1.6510 O.3       1 PLP1        0.0000
      4 HO2         2.0260   -1.2530    1.7400 H         1 PLP1        0.0000
      5 C13         2.1400    1.4900   -0.0340 C.3       1 PLP1        0.0000
      6 H3          1.6340    1.7110   -1.0120 H         1 PLP1        0.0000
      7 O3          3.5790    1.5520   -0.1470 O.3       1 PLP1        0.0000
      8 P3          4.2730    1.7250   -1.6190 P.3       1 PLP1        0.0000
      9 OP32        3.9590    3.2800   -1.7120 O.3       1 PLP1        0.0000
     10 HP32        3.3200    3.4710   -1.0040 H         1 PLP1        0.0000
     11 OP33        5.7750    1.5010   -1.5390 O.3       1 PLP1        0.0000
     12 OP34        3.4840    0.9600   -2.6740 O.2       1 PLP1        0.0000
     13 C14         1.5780    2.5130    0.9490 C.3       1 PLP1        0.0000
     14 H4          2.1450    2.3770    1.9040 H         1 PLP1        0.0000
     15 O4          1.7670    3.8700    0.5420 O.3       1 PLP1        0.0000
     16 HO4         1.0180    4.3670    0.9490 H         1 PLP1        0.0000
     17 C15         0.1020    2.3050    1.2820 C.3       1 PLP1        0.0000
     18 H5         -0.3970    2.8110    0.4010 H         1 PLP1        0.0000
     19 O5         -0.2310    2.9370    2.5320 O.3       1 PLP1        0.0000
     20 P5         -1.2750    4.2100    2.4810 P.3       1 PLP1        0.0000
     21 OP52       -0.5190    5.2510    1.6560 O.2       1 PLP1        0.0000
     22 OP53       -2.5030    3.6420    1.7760 O.3       1 PLP1        0.0000
     23 OP54       -1.5210    4.6180    3.9260 O.3       1 PLP1        0.0000
     24 C16        -0.5120    0.9070    1.2220 C.3       1 PLP1        0.0000
     25 H6         -0.4040    0.4700    2.2420 H         1 PLP1        0.0000
     26 O6         -1.9080    1.0400    0.9720 O.3       1 PLP1        0.0000
     27 HO6        -2.1350    1.9420    1.3040 H         1 PLP1        0.0000
     28 C11         0.1920   -0.0360    0.2570 C.3       1 PLP1        0.0000
     29 H1         -0.0650    0.3570   -0.7590 H         1 PLP1        0.0000
     30 P          -0.2190   -2.4710    1.4580 P.3       1 PLP1        0.0000
     31 O13        -0.7190   -1.9640    2.7500 O.3       1 PLP1        0.0000
     32 O14         1.1300   -3.0910    1.4680 O.2       1 PLP1        0.0000
     33 O12        -0.2900   -1.3800    0.2430 O.3       1 PLP1        0.0000
     34 O11        -1.2540   -3.5490    0.9330 O.3       1 PLP1        0.0000
     35 C1         -1.8210   -4.5120    1.8150 C.3       1 PLP1        0.0000
     36 HA         -2.8650   -4.2240    2.0650 H         1 PLP1        0.0000
     37 HB         -1.2560   -4.6010    2.7750 H         1 PLP1        0.0000
     38 C2         -1.8120   -5.8900    1.1260 C.3       1 PLP1        0.0000
     39 HS         -2.6030   -5.8660    0.3380 H         1 PLP1        0.0000
     40 O21        -2.0570   -6.8850    2.1410 O.3       1 PLP1        0.0000
     41 C21        -2.6660   -7.9770    1.7220 C.2       1 PLP1        0.0000
     42 O22        -3.1020   -8.1830    0.6070 O.2       1 PLP1        0.0000
     43 C22        -2.7520   -8.9670    2.8850 C.3       1 PLP1        0.0000
     44 H2R        -3.2440   -8.4540    3.7370 H         1 PLP1        0.0000
     45 H2S        -1.7190   -9.2400    3.1810 H         1 PLP1        0.0000
     46 C3         -0.4390   -6.1390    0.4260 C.3       1 PLP1        0.0000
     47 HX          0.3460   -6.0770    1.2120 H         1 PLP1        0.0000
     48 HY         -0.2270   -5.3090   -0.2890 H         1 PLP1        0.0000
     49 O31        -0.3690   -7.4340   -0.2120 O.3       1 PLP1        0.0000
     50 C31        -0.9570   -7.4830   -1.4030 C.2       1 PLP1        0.0000
     51 O32        -1.4340   -6.5400   -2.0100 O.2       1 PLP1        0.0000
     52 C32        -0.9490   -8.9250   -1.8950 C.3       1 PLP1        0.0000
     53 H2X        -1.5270   -9.5280   -1.1640 H         1 PLP1        0.0000
     54 H2Y         0.1000   -9.2830   -1.9100 H         1 PLP1        0.0000
     55 C23        -3.5470  -10.2310    2.4930 C.3       1 PLP1        0.0000
     56 H3R        -3.0460  -10.7360    1.6360 H         1 PLP1        0.0000
     57 H3S        -4.5690   -9.9400    2.1580 H         1 PLP1        0.0000
     58 C24        -3.6770  -11.2320    3.6470 C.3       1 PLP1        0.0000
     59 H4R        -4.1930  -10.7420    4.5030 H         1 PLP1        0.0000
     60 H4S        -2.6620  -11.5340    3.9890 H         1 PLP1        0.0000
     61 C25        -4.4630  -12.4830    3.2320 C.3       1 PLP1        0.0000
     62 H5R        -3.9490  -12.9630    2.3690 H         1 PLP1        0.0000
     63 H5S        -5.4780  -12.1780    2.8910 H         1 PLP1        0.0000
     64 C26        -4.6050  -13.5120    4.3610 C.3       1 PLP1        0.0000
     65 H6R        -5.1300  -13.0410    5.2230 H         1 PLP1        0.0000
     66 H6S        -3.5920  -13.8170    4.7070 H         1 PLP1        0.0000
     67 C27        -5.3840  -14.7590    3.9170 C.3       1 PLP1        0.0000
     68 H7R        -4.8660  -15.2090    3.0400 H         1 PLP1        0.0000
     69 H7S        -6.4010  -14.4440    3.5900 H         1 PLP1        0.0000
     70 C28        -5.5050  -15.8040    5.0410 C.3       1 PLP1        0.0000
     71 H8R        -5.9800  -15.3010    5.9130 H         1 PLP1        0.0000
     72 H8S        -4.4820  -16.1010    5.3610 H         1 PLP1        0.0000
     73 C29        -6.2790  -17.0210    4.5960 C.2       1 PLP1        0.0000
     74 H91        -5.8670  -17.5390    3.7170 H         1 PLP1        0.0000
     75 C210       -7.4070  -17.4970    5.1630 C.2       1 PLP1        0.0000
     76 H101       -7.8790  -18.3940    4.7320 H         1 PLP1        0.0000
     77 C211       -8.1150  -16.9170    6.3640 C.3       1 PLP1        0.0000
     78 H11R       -7.3720  -16.4980    7.0790 H         1 PLP1        0.0000
     79 H11S       -8.6240  -17.7370    6.9190 H         1 PLP1        0.0000
     80 C212       -9.1100  -15.8400    6.0040 C.2       1 PLP1        0.0000
     81 H121       -9.1480  -15.5250    4.9480 H         1 PLP1        0.0000
     82 C213       -9.9300  -15.2570    6.8890 C.2       1 PLP1        0.0000
     83 H131       -9.8890  -15.5580    7.9480 H         1 PLP1        0.0000
     84 C214      -10.9280  -14.1840    6.5370 C.3       1 PLP1        0.0000
     85 H14R      -11.6710  -14.5750    5.8060 H         1 PLP1        0.0000
     86 H14S      -10.4180  -13.3170    6.0580 H         1 PLP1        0.0000
     87 C215      -11.6880  -13.6800    7.7760 C.3       1 PLP1        0.0000
     88 H15R      -10.9680  -13.2430    8.5040 H         1 PLP1        0.0000
     89 H15S      -12.2020  -14.5330    8.2730 H         1 PLP1        0.0000
     90 C216      -12.7400  -12.6170    7.4280 C.3       1 PLP1        0.0000
     91 H16R      -13.4690  -13.0470    6.7050 H         1 PLP1        0.0000
     92 H16S      -12.2390  -11.7560    6.9310 H         1 PLP1        0.0000
     93 C217      -13.4940  -12.1170    8.6670 C.3       1 PLP1        0.0000
     94 H17R      -12.7550  -11.6990    9.3890 H         1 PLP1        0.0000
     95 H17S      -13.9860  -12.9870    9.1600 H         1 PLP1        0.0000
     96 C218      -14.5490  -11.0530    8.3540 C.3       1 PLP1        0.0000
     97 H18R      -15.3130  -11.4570    7.6550 H         1 PLP1        0.0000
     98 H18S      -14.0770  -10.1640    7.8830 H         1 PLP1        0.0000
     99 H18T      -15.0610  -10.7280    9.2850 H         1 PLP1        0.0000
    100 C33        -1.5840   -9.0540   -3.2940 C.3       1 PLP1        0.0000
    101 H3X        -0.9800   -8.4850   -4.0370 H         1 PLP1        0.0000
    102 H3Y        -2.6080   -8.6090   -3.2840 H         1 PLP1        0.0000
    103 C34        -1.6940  -10.5150   -3.7370 C.3       1 PLP1        0.0000
    104 H4X        -2.3260  -11.0680   -3.0070 H         1 PLP1        0.0000
    105 H4Y        -0.6810  -10.9780   -3.7290 H         1 PLP1        0.0000
    106 C35        -2.3020  -10.6590   -5.1360 C.3       1 PLP1        0.0000
    107 H5X        -1.6660  -10.1130   -5.8690 H         1 PLP1        0.0000
    108 H5Y        -3.3110  -10.1900   -5.1480 H         1 PLP1        0.0000
    109 C36        -2.4190  -12.1260   -5.5610 C.3       1 PLP1        0.0000
    110 H6X        -3.0690  -12.6650   -4.8340 H         1 PLP1        0.0000
    111 H6Y        -1.4100  -12.5950   -5.5270 H         1 PLP1        0.0000
    112 C37        -2.9980  -12.2890   -6.9700 C.3       1 PLP1        0.0000
    113 H7X        -2.3530  -11.7460   -7.6960 H         1 PLP1        0.0000
    114 H7Y        -4.0120  -11.8310   -7.0080 H         1 PLP1        0.0000
    115 C38        -3.0910  -13.7620   -7.3820 C.3       1 PLP1        0.0000
    116 H8X        -3.7460  -14.3030   -6.6620 H         1 PLP1        0.0000
    117 H8Y        -2.0770  -14.2190   -7.3250 H         1 PLP1        0.0000
    118 C39        -3.6410  -13.9440   -8.7990 C.3       1 PLP1        0.0000
    119 H9X        -2.9900  -13.3980   -9.5180 H         1 PLP1        0.0000
    120 H9Y        -4.6600  -13.4990   -8.8590 H         1 PLP1        0.0000
    121 C310       -3.7100  -15.4210   -9.2040 C.3       1 PLP1        0.0000
    122 H10X       -4.3690  -15.9660   -8.4910 H         1 PLP1        0.0000
    123 H10Y       -2.6920  -15.8650   -9.1310 H         1 PLP1        0.0000
    124 C311       -4.2390  -15.6140  -10.6290 C.3       1 PLP1        0.0000
    125 H11X       -3.5830  -15.0640  -11.3400 H         1 PLP1        0.0000
    126 H11Y       -5.2600  -15.1770  -10.7030 H         1 PLP1        0.0000
    127 C312       -4.2920  -17.0910  -11.0330 C.3       1 PLP1        0.0000
    128 H12X       -4.9520  -17.6410  -10.3250 H         1 PLP1        0.0000
    129 H12Y       -3.2710  -17.5280  -10.9510 H         1 PLP1        0.0000
    130 C313       -4.8100  -17.2890  -12.4620 C.3       1 PLP1        0.0000
    131 H13X       -4.1510  -16.7360  -13.1680 H         1 PLP1        0.0000
    132 H13Y       -5.8320  -16.8550  -12.5430 H         1 PLP1        0.0000
    133 C314       -4.8550  -18.7670  -12.8680 C.3       1 PLP1        0.0000
    134 H14X       -5.5150  -19.3190  -12.1620 H         1 PLP1        0.0000
    135 H14Y       -3.8330  -19.1990  -12.7830 H         1 PLP1        0.0000
    136 C315       -5.3690  -18.9680  -14.2980 C.3       1 PLP1        0.0000
    137 H15X       -4.7090  -18.4080  -14.9980 H         1 PLP1        0.0000
    138 H15Y       -6.3900  -18.5290  -14.3770 H         1 PLP1        0.0000
    139 C316       -5.4180  -20.4390  -14.7180 C.3       1 PLP1        0.0000
    140 H16X       -6.0910  -21.0130  -14.0450 H         1 PLP1        0.0000
    141 H16Y       -4.4040  -20.8900  -14.6690 H         1 PLP1        0.0000
    142 H16Z       -5.7960  -20.5350  -15.7590 H         1 PLP1        0.0000
@<TRIPOS>BOND
     1  142  139 1 
     2  137  136 1 
     3  139  141 1 
     4  139  136 1 
     5  139  140 1 
     6  138  136 1 
     7  136  133 1 
     8  131  130 1 
     9  133  135 1 
    10  133  130 1 
    11  133  134 1 
    12  132  130 1 
    13  130  127 1 
    14  125  124 1 
    15  127  129 1 
    16  127  124 1 
    17  127  128 1 
    18  126  124 1 
    19  124  121 1 
    20  119  118 1 
    21  121  123 1 
    22  121  118 1 
    23  121  122 1 
    24  120  118 1 
    25  118  115 1 
    26  113  112 1 
    27  115  117 1 
    28  115  112 1 
    29  115  116 1 
    30  114  112 1 
    31  112  109 1 
    32  107  106 1 
    33  109  111 1 
    34  109  106 1 
    35  109  110 1 
    36  108  106 1 
    37  106  103 1 
    38  101  100 1 
    39  103  105 1 
    40  103  100 1 
    41  103  104 1 
    42  100  102 1 
    43  100   52 1 
    44   12    8 2 
    45   51   50 2 
    46   54   52 1 
    47   52   50 1 
    48   52   53 1 
    49    9    8 1 
    50    9   10 1 
    51    8   11 1 
    52    8    7 1 
    53   50   49 1 
    54    6    5 1 
    55   29   28 1 
    56    2    1 1 
    57   48   46 1 
    58   49   46 1 
    59    7    5 1 
    60    5    1 1 
    61    5   13 1 
    62   33   28 1 
    63   33   30 1 
    64   28    1 1 
    65   28   24 1 
    66   39   38 1 
    67    1    3 1 
    68   18   17 1 
    69   46   38 1 
    70   46   47 1 
    71   15   13 1 
    72   15   16 1 
    73   42   41 2 
    74   34   30 1 
    75   34   35 1 
    76   13   17 1 
    77   13   14 1 
    78   26   24 1 
    79   26   27 1 
    80   38   35 1 
    81   38   40 1 
    82   24   17 1 
    83   24   25 1 
    84   17   19 1 
    85   30   32 2 
    86   30   31 1 
    87   56   55 1 
    88    3    4 1 
    89   21   20 2 
    90   41   40 1 
    91   41   43 1 
    92   22   20 1 
    93   35   36 1 
    94   35   37 1 
    95   57   55 1 
    96   62   61 1 
    97   20   19 1 
    98   20   23 1 
    99   55   43 1 
   100   55   58 1 
   101   43   45 1 
   102   43   44 1 
   103   63   61 1 
   104   68   67 1 
   105   61   58 1 
   106   61   64 1 
   107   69   67 1 
   108   58   60 1 
   109   58   59 1 
   110   74   73 1 
   111   67   64 1 
   112   67   70 1 
   113   64   66 1 
   114   64   65 1 
   115   73   70 1 
   116   73   75 2 
   117   76   75 1 
   118   81   80 1 
   119   70   72 1 
   120   70   71 1 
   121   75   77 1 
   122   85   84 1 
   123   80   77 1 
   124   80   82 2 
   125   86   84 1 
   126   77   79 1 
   127   77   78 1 
   128   84   82 1 
   129   84   87 1 
   130   91   90 1 
   131   82   83 1 
   132   92   90 1 
   133   90   87 1 
   134   90   93 1 
   135   97   96 1 
   136   87   89 1 
   137   87   88 1 
   138   98   96 1 
   139   96   93 1 
   140   96   99 1 
   141   93   95 1 
   142   93   94 1 
