@<TRIPOS>MOLECULE
C:\Users\Praveer\PycharmProjects\pdb_to_mol2_converter\data\pdb\plps.pdb
  125   124     0     0     0
SMALL
GASTEIGER

@<TRIPOS>ATOM
      1 N          -0.0110   -0.2590   -0.1840 N.4       1 PLP1        0.0000
      2 HN1        -0.4440    0.1610    0.6870 H         1 PLP1        0.0000
      3 HN2        -0.2340   -1.2610   -0.3220 H         1 PLP1        0.0000
      4 HN3        -0.3090    0.2720   -1.0250 H         1 PLP1        0.0000
      5 C12         1.4720   -0.1060   -0.1100 C.3       1 PLP1        0.0000
      6 H12A        1.8320   -0.6590    0.7450 H         1 PLP1        0.0000
      7 C13         2.1440   -0.7180   -1.3580 C.2       1 PLP1        0.0000
      8 O13A        1.4110   -1.3040   -2.2030 O.co2     1 PLP1        0.0000
      9 O13B        3.3970   -0.7970   -1.3510 O.co2     1 PLP1        0.0000
     10 C11         1.8430    1.4080    0.0270 C.3       1 PLP1        0.0000
     11 H11A        1.4490    1.9820   -0.8430 H         1 PLP1        0.0000
     12 H11B        2.9540    1.4820   -0.0340 H         1 PLP1        0.0000
     13 P          -0.0360    2.4850    1.5540 P.3       1 PLP1        0.0000
     14 O13        -0.4670    3.3110    0.4110 O.2       1 PLP1        0.0000
     15 O14        -0.8360    1.2680    1.8300 O.3       1 PLP1        0.0000
     16 O12         1.4380    1.9820    1.2770 O.3       1 PLP1        0.0000
     17 O11         0.1390    3.3760    2.8420 O.3       1 PLP1        0.0000
     18 C1          0.8200    4.6320    2.7560 C.3       1 PLP1        0.0000
     19 HA          0.0860    5.4530    2.9260 H         1 PLP1        0.0000
     20 HB          1.2990    4.8190    1.7600 H         1 PLP1        0.0000
     21 C2          1.9360    4.6970    3.8280 C.3       1 PLP1        0.0000
     22 HS          1.4570    4.6130    4.8340 H         1 PLP1        0.0000
     23 O21         2.6660    5.9260    3.6720 O.3       1 PLP1        0.0000
     24 C21         2.0570    6.9860    4.1690 C.2       1 PLP1        0.0000
     25 O22         1.0360    6.9830    4.8350 O.2       1 PLP1        0.0000
     26 C22         2.8120    8.2450    3.7470 C.3       1 PLP1        0.0000
     27 H2R         2.0620    8.9140    3.2750 H         1 PLP1        0.0000
     28 H2S         3.5780    7.9830    2.9890 H         1 PLP1        0.0000
     29 C3          2.9330    3.5100    3.7070 C.3       1 PLP1        0.0000
     30 HX          3.3880    3.5640    2.6930 H         1 PLP1        0.0000
     31 HY          2.3740    2.5470    3.7520 H         1 PLP1        0.0000
     32 O31         3.9890    3.5810    4.6960 O.3       1 PLP1        0.0000
     33 C31         3.6830    3.0620    5.8790 C.2       1 PLP1        0.0000
     34 O32         2.6320    2.5300    6.1770 O.2       1 PLP1        0.0000
     35 C32         4.8720    3.2430    6.8260 C.3       1 PLP1        0.0000
     36 H2X         5.0220    4.3330    6.9730 H         1 PLP1        0.0000
     37 H2Y         5.7730    2.8220    6.3350 H         1 PLP1        0.0000
     38 C23         3.4620    8.9680    4.9470 C.3       1 PLP1        0.0000
     39 H3R         2.6960    9.1810    5.7280 H         1 PLP1        0.0000
     40 H3S         3.8570    9.9470    4.5900 H         1 PLP1        0.0000
     41 C24         4.6270    8.1780    5.5640 C.3       1 PLP1        0.0000
     42 H4R         5.3480    7.8930    4.7650 H         1 PLP1        0.0000
     43 H4S         4.2330    7.2380    6.0130 H         1 PLP1        0.0000
     44 C25         5.3760    8.9690    6.6470 C.3       1 PLP1        0.0000
     45 H5R         4.6330    9.3610    7.3760 H         1 PLP1        0.0000
     46 H5S         5.8850    9.8410    6.1800 H         1 PLP1        0.0000
     47 C26         6.4100    8.1090    7.3910 C.3       1 PLP1        0.0000
     48 H6R         7.1050    7.6580    6.6480 H         1 PLP1        0.0000
     49 H6S         5.8800    7.2710    7.8970 H         1 PLP1        0.0000
     50 C27         7.2460    8.8750    8.4340 C.3       1 PLP1        0.0000
     51 H7R         7.9220    9.5780    7.8950 H         1 PLP1        0.0000
     52 H7S         7.8910    8.1450    8.9750 H         1 PLP1        0.0000
     53 C28         6.4410    9.6870    9.4710 C.3       1 PLP1        0.0000
     54 H8R         5.9060   10.5090    8.9450 H         1 PLP1        0.0000
     55 H8S         7.1730   10.1820   10.1470 H         1 PLP1        0.0000
     56 C29         5.4500    8.8420   10.2370 C.2       1 PLP1        0.0000
     57 H9R         4.5850    8.5140    9.6400 H         1 PLP1        0.0000
     58 C210        5.5230    8.4520   11.5240 C.2       1 PLP1        0.0000
     59 H10R        4.7050    7.8350   11.9260 H         1 PLP1        0.0000
     60 C211        6.6170    8.7650   12.5180 C.3       1 PLP1        0.0000
     61 H11R        6.1550    9.1840   13.4390 H         1 PLP1        0.0000
     62 H11S        7.2880    9.5640   12.1370 H         1 PLP1        0.0000
     63 C212        7.4000    7.5240   12.8770 C.2       1 PLP1        0.0000
     64 H12R        6.7980    6.6150   13.0360 H         1 PLP1        0.0000
     65 C213        8.7380    7.4340   12.9960 C.2       1 PLP1        0.0000
     66 H13R        9.1850    6.4610   13.2510 H         1 PLP1        0.0000
     67 C214        9.7270    8.5610   12.8200 C.3       1 PLP1        0.0000
     68 H14R       10.5830    8.4240   13.5170 H         1 PLP1        0.0000
     69 H14S        9.2670    9.5410   13.0810 H         1 PLP1        0.0000
     70 C215       10.2770    8.6630   11.3830 C.3       1 PLP1        0.0000
     71 H15R       10.9540    9.5460   11.3330 H         1 PLP1        0.0000
     72 H15S        9.4370    8.8480   10.6780 H         1 PLP1        0.0000
     73 C216       11.0710    7.4230   10.9390 C.3       1 PLP1        0.0000
     74 H16R       10.3810    6.5540   10.8590 H         1 PLP1        0.0000
     75 H16S       11.8240    7.1880   11.7250 H         1 PLP1        0.0000
     76 C217       11.8020    7.6020    9.5990 C.3       1 PLP1        0.0000
     77 H17R       12.3860    6.6750    9.3940 H         1 PLP1        0.0000
     78 H17S       12.5320    8.4380    9.7000 H         1 PLP1        0.0000
     79 C218       10.8810    7.8800    8.4080 C.3       1 PLP1        0.0000
     80 H18R       10.3460    8.8450    8.5430 H         1 PLP1        0.0000
     81 H18S       10.1250    7.0720    8.3070 H         1 PLP1        0.0000
     82 H18T       11.4670    7.9360    7.4660 H         1 PLP1        0.0000
     83 C33         4.6370    2.5550    8.1910 C.3       1 PLP1        0.0000
     84 H3X         4.5300    1.4560    8.0400 H         1 PLP1        0.0000
     85 H3Y         3.6840    2.9240    8.6350 H         1 PLP1        0.0000
     86 C34         5.7730    2.8190    9.1880 C.3       1 PLP1        0.0000
     87 H4X         5.8690    3.9170    9.3450 H         1 PLP1        0.0000
     88 H4Y         6.7320    2.4530    8.7580 H         1 PLP1        0.0000
     89 C35         5.5470    2.1420   10.5480 C.3       1 PLP1        0.0000
     90 H5X         5.4790    1.0400   10.4020 H         1 PLP1        0.0000
     91 H5Y         4.5780    2.4860   10.9730 H         1 PLP1        0.0000
     92 C36         6.6710    2.4490   11.5480 C.3       1 PLP1        0.0000
     93 H6X         6.7340    3.5500   11.6970 H         1 PLP1        0.0000
     94 H6Y         7.6400    2.1100   11.1170 H         1 PLP1        0.0000
     95 C37         6.4660    1.7680   12.9090 C.3       1 PLP1        0.0000
     96 H7X         6.4020    0.6670   12.7580 H         1 PLP1        0.0000
     97 H7Y         5.5000    2.1060   13.3470 H         1 PLP1        0.0000
     98 C38         7.6020    2.0720   13.8960 C.3       1 PLP1        0.0000
     99 H8X         7.6610    3.1720   14.0570 H         1 PLP1        0.0000
    100 H8Y         8.5670    1.7440   13.4470 H         1 PLP1        0.0000
    101 C39         7.4230    1.3740   15.2510 C.3       1 PLP1        0.0000
    102 H9X         7.3600    0.2740   15.0880 H         1 PLP1        0.0000
    103 H9Y         6.4640    1.7030   15.7100 H         1 PLP1        0.0000
    104 C310        8.5760    1.6700   16.2210 C.3       1 PLP1        0.0000
    105 H10X        8.6360    2.7680   16.3920 H         1 PLP1        0.0000
    106 H10Y        9.5330    1.3470   15.7550 H         1 PLP1        0.0000
    107 C311        8.4150    0.9590   17.5720 C.3       1 PLP1        0.0000
    108 H11X        8.3520   -0.1390   17.4000 H         1 PLP1        0.0000
    109 H11Y        7.4620    1.2830   18.0460 H         1 PLP1        0.0000
    110 C312        9.5780    1.2490   18.5310 C.3       1 PLP1        0.0000
    111 H12X        9.6410    2.3460   18.7070 H         1 PLP1        0.0000
    112 H12Y       10.5310    0.9270   18.0550 H         1 PLP1        0.0000
    113 C313        9.4280    0.5320   19.8800 C.3       1 PLP1        0.0000
    114 H13X        9.3640   -0.5650   19.7050 H         1 PLP1        0.0000
    115 H13Y        8.4770    0.8540   20.3610 H         1 PLP1        0.0000
    116 C314       10.5960    0.8200   20.8340 C.3       1 PLP1        0.0000
    117 H14X       10.6610    1.9170   21.0110 H         1 PLP1        0.0000
    118 H14Y       11.5470    0.4980   20.3530 H         1 PLP1        0.0000
    119 C315       10.4510    0.1040   22.1830 C.3       1 PLP1        0.0000
    120 H15X       10.3810   -0.9930   22.0010 H         1 PLP1        0.0000
    121 H15Y        9.4960    0.4250   22.6590 H         1 PLP1        0.0000
    122 C316       11.6100    0.3810   23.1440 C.3       1 PLP1        0.0000
    123 H16X       11.6840    1.4680   23.3600 H         1 PLP1        0.0000
    124 H16Y       12.5720    0.0450   22.7000 H         1 PLP1        0.0000
    125 H16Z       11.4590   -0.1580   24.1040 H         1 PLP1        0.0000
@<TRIPOS>BOND
     1    8    7 ar
     2    7    9 ar
     3    7    5 1 
     4    4    1 1 
     5   11   10 1 
     6    3    1 1 
     7    1    5 1 
     8    1    2 1 
     9    5   10 1 
    10    5    6 1 
    11   12   10 1 
    12   10   16 1 
    13   14   13 2 
    14   16   13 1 
    15   13   15 1 
    16   13   17 1 
    17   20   18 1 
    18   30   29 1 
    19   18   17 1 
    20   18   19 1 
    21   18   21 1 
    22   28   26 1 
    23   27   26 1 
    24   23   21 1 
    25   23   24 1 
    26   29   31 1 
    27   29   21 1 
    28   29   32 1 
    29   26   24 1 
    30   26   38 1 
    31   21   22 1 
    32   24   25 2 
    33   40   38 1 
    34   32   33 1 
    35   42   41 1 
    36   38   41 1 
    37   38   39 1 
    38   41   43 1 
    39   41   44 1 
    40   33   34 2 
    41   33   35 1 
    42   46   44 1 
    43   37   35 1 
    44   44   45 1 
    45   44   47 1 
    46   48   47 1 
    47   35   36 1 
    48   35   83 1 
    49   47   49 1 
    50   47   50 1 
    51   82   79 1 
    52   51   50 1 
    53   84   83 1 
    54   83   85 1 
    55   83   86 1 
    56   81   79 1 
    57   79   80 1 
    58   79   76 1 
    59   50   52 1 
    60   50   53 1 
    61   88   86 1 
    62   54   53 1 
    63   86   87 1 
    64   86   89 1 
    65   77   76 1 
    66   53   55 1 
    67   53   56 1 
    68   76   78 1 
    69   76   73 1 
    70   57   56 1 
    71   56   58 2 
    72   90   89 1 
    73   89   91 1 
    74   89   92 1 
    75   72   70 1 
    76   74   73 1 
    77   73   70 1 
    78   73   75 1 
    79   94   92 1 
    80   71   70 1 
    81   70   67 1 
    82   58   59 1 
    83   58   60 1 
    84   92   93 1 
    85   92   95 1 
    86   62   60 1 
    87   60   63 1 
    88   60   61 1 
    89   96   95 1 
    90   67   65 1 
    91   67   69 1 
    92   67   68 1 
    93   63   65 2 
    94   63   64 1 
    95   95   97 1 
    96   95   98 1 
    97   65   66 1 
    98  100   98 1 
    99   98   99 1 
   100   98  101 1 
   101  102  101 1 
   102  101  103 1 
   103  101  104 1 
   104  106  104 1 
   105  104  105 1 
   106  104  107 1 
   107  108  107 1 
   108  107  109 1 
   109  107  110 1 
   110  112  110 1 
   111  110  111 1 
   112  110  113 1 
   113  114  113 1 
   114  113  115 1 
   115  113  116 1 
   116  118  116 1 
   117  116  117 1 
   118  116  119 1 
   119  120  119 1 
   120  119  121 1 
   121  119  122 1 
   122  124  122 1 
   123  122  123 1 
   124  122  125 1 
