@<TRIPOS>MOLECULE
C:\Users\Praveer\PycharmProjects\pdb_to_mol2_converter\data\pdb\pmcl1.pdb
  234   234     0     0     0
SMALL
GASTEIGER

@<TRIPOS>ATOM
      1 C3          1.5530   -0.0140   -0.0300 C.3       1 PMC1        0.0000
      2 HG31        1.9020   -0.5150    0.9010 H         1 PMC1        0.0000
      3 HG32        1.9340   -0.6230   -0.8820 H         1 PMC1        0.0000
      4 P3          2.3060    2.1750   -1.3220 P.3       1 PMC1        0.0000
      5 OP33        3.4610    3.0780   -1.1290 O.3       1 PMC1        0.0000
      6 OP34        2.2970    1.2800   -2.4970 O.2       1 PMC1        0.0000
      7 OP31        2.0880    1.3120   -0.0170 O.3       1 PMC1        0.0000
      8 OP32        0.9560    3.0240   -1.3200 O.3       1 PMC1        0.0000
      9 C31         1.0170    4.4380   -1.0850 C.3       1 PMC1        0.0000
     10 H31J        1.7050    4.6920   -0.2450 H         1 PMC1        0.0000
     11 H31K        0.0100    4.7960   -0.7780 H         1 PMC1        0.0000
     12 C2          0.0020   -0.0150   -0.0170 C.3       1 PMC1        0.0000
     13 HG22       -0.3110    0.8750    0.5740 H         1 PMC1        0.0000
     14 OG12       -0.4820   -1.1790    0.6570 O.3       1 PMC1        0.0000
     15 HO12       -1.4390   -1.1400    0.5560 H         1 PMC1        0.0000
     16 C1         -0.6550    0.0610   -1.4270 C.3       1 PMC1        0.0000
     17 HG11       -0.5500   -0.9420   -1.8980 H         1 PMC1        0.0000
     18 HG12       -0.0790    0.7450   -2.0910 H         1 PMC1        0.0000
     19 P1         -2.4190    1.8830   -1.6030 P.3       1 PMC1        0.0000
     20 OP13       -1.6160    2.8080   -0.6370 O.3       1 PMC1        0.0000
     21 HP13       -0.6950    2.9150   -0.9420 H         1 PMC1        0.0000
     22 OP14       -2.1180    2.2860   -2.9840 O.2       1 PMC1        0.0000
     23 OP11       -2.0540    0.3810   -1.3100 O.3       1 PMC1        0.0000
     24 OP12       -3.9330    2.1050   -1.2400 O.3       1 PMC1        0.0000
     25 C11        -4.4360    3.4090   -1.5780 C.3       1 PMC1        0.0000
     26 H11J       -3.6630    4.2200   -1.5800 H         1 PMC1        0.0000
     27 H11K       -5.1620    3.7150   -0.7960 H         1 PMC1        0.0000
     28 C12        -5.1440    3.4170   -2.9720 C.3       1 PMC1        0.0000
     29 H12J       -4.3820    3.0530   -3.7000 H         1 PMC1        0.0000
     30 O12        -6.2550    2.4980   -3.0530 O.3       1 PMC1        0.0000
     31 CA1        -7.3050    2.7210   -2.2850 C.2       1 PMC1        0.0000
     32 OA1        -7.4360    3.6340   -1.4900 O.2       1 PMC1        0.0000
     33 CA2        -8.3490    1.6330   -2.5380 C.3       1 PMC1        0.0000
     34 H2A        -8.7720    1.3350   -1.5570 H         1 PMC1        0.0000
     35 H2B        -7.8390    0.7530   -2.9820 H         1 PMC1        0.0000
     36 C13        -5.5080    4.8580   -3.4440 C.3       1 PMC1        0.0000
     37 H13J       -4.5740    5.4640   -3.3470 H         1 PMC1        0.0000
     38 H13K       -6.2770    5.3100   -2.7810 H         1 PMC1        0.0000
     39 O13        -5.9660    4.8320   -4.8120 O.3       1 PMC1        0.0000
     40 CB1        -6.0070    6.0310   -5.3830 C.2       1 PMC1        0.0000
     41 OB1        -5.7090    7.0790   -4.8430 O.2       1 PMC1        0.0000
     42 CB2        -6.4980    5.8790   -6.8200 C.3       1 PMC1        0.0000
     43 H2D        -7.5700    5.5990   -6.7760 H         1 PMC1        0.0000
     44 H2E        -5.9400    5.0470   -7.2940 H         1 PMC1        0.0000
     45 C32         1.4390    5.2430   -2.3530 C.3       1 PMC1        0.0000
     46 H32J        2.5270    5.0440   -2.4960 H         1 PMC1        0.0000
     47 O32         0.7790    4.7780   -3.5420 O.3       1 PMC1        0.0000
     48 CC1        -0.5250    4.9000   -3.6500 C.2       1 PMC1        0.0000
     49 OC1        -1.2950    5.3650   -2.8250 O.2       1 PMC1        0.0000
     50 CC2        -0.9040    4.4790   -5.0740 C.3       1 PMC1        0.0000
     51 H2R        -0.7980    3.3770   -5.1430 H         1 PMC1        0.0000
     52 H2S        -0.1630    4.9470   -5.7520 H         1 PMC1        0.0000
     53 C33         1.3010    6.7820   -2.1570 C.3       1 PMC1        0.0000
     54 H33J        1.8590    7.0510   -1.2310 H         1 PMC1        0.0000
     55 H33K        0.2290    7.0380   -1.9960 H         1 PMC1        0.0000
     56 O33         1.8540    7.4860   -3.2900 O.3       1 PMC1        0.0000
     57 CD1         1.6370    8.7930   -3.2650 C.2       1 PMC1        0.0000
     58 OD1         1.0460    9.3980   -2.3890 O.2       1 PMC1        0.0000
     59 CD2         2.2680    9.4190   -4.5080 C.3       1 PMC1        0.0000
     60 H2X         1.8180    8.9410   -5.4030 H         1 PMC1        0.0000
     61 H2Y         3.3500    9.1750   -4.4820 H         1 PMC1        0.0000
     62 CA3        -9.4750    2.1170   -3.4800 C.3       1 PMC1        0.0000
     63 H3A       -10.0770    1.2310   -3.7880 H         1 PMC1        0.0000
     64 H3B        -9.0380    2.5570   -4.4040 H         1 PMC1        0.0000
     65 CA4       -10.4260    3.1200   -2.8100 C.3       1 PMC1        0.0000
     66 H4A        -9.8680    4.0410   -2.5320 H         1 PMC1        0.0000
     67 H4B       -10.8030    2.6700   -1.8630 H         1 PMC1        0.0000
     68 CA5       -11.6390    3.4960   -3.6790 C.3       1 PMC1        0.0000
     69 H5A       -12.3100    4.1550   -3.0830 H         1 PMC1        0.0000
     70 H5B       -12.2070    2.5680   -3.9170 H         1 PMC1        0.0000
     71 CA6       -11.2980    4.2170   -4.9950 C.3       1 PMC1        0.0000
     72 H6A       -12.2490    4.4070   -5.5430 H         1 PMC1        0.0000
     73 H6B       -10.6730    3.5590   -5.6370 H         1 PMC1        0.0000
     74 CA7       -10.5800    5.5600   -4.7950 C.3       1 PMC1        0.0000
     75 H7A        -9.5800    5.3850   -4.3380 H         1 PMC1        0.0000
     76 H7B       -11.1690    6.1790   -4.0830 H         1 PMC1        0.0000
     77 CA8       -10.3940    6.3290   -6.1130 C.3       1 PMC1        0.0000
     78 H8A       -11.3850    6.4920   -6.5850 H         1 PMC1        0.0000
     79 H8B        -9.8000    5.7090   -6.8200 H         1 PMC1        0.0000
     80 CA9        -9.6750    7.6590   -5.8820 C.3       1 PMC1        0.0000
     81 H9A        -8.6120    7.6260   -5.5900 H         1 PMC1        0.0000
     82 CA17      -10.0690    8.8190   -6.7890 C.3       1 PMC1        0.0000
     83 H17A      -10.9070    8.6020   -7.4350 H         1 PMC1        0.0000
     84 H17B       -9.2420    9.4700   -7.0350 H         1 PMC1        0.0000
     85 CA10      -10.4300    8.8310   -5.3030 C.3       1 PMC1        0.0000
     86 H10A       -9.8290    9.5280   -4.6950 H         1 PMC1        0.0000
     87 CA11      -11.9280    8.7360   -5.0160 C.3       1 PMC1        0.0000
     88 H11A      -12.0820    8.2630   -4.0210 H         1 PMC1        0.0000
     89 H11B      -12.4420    8.1140   -5.7760 H         1 PMC1        0.0000
     90 CA12      -12.5610   10.1390   -5.0000 C.3       1 PMC1        0.0000
     91 H12A      -12.4480   10.6030   -6.0040 H         1 PMC1        0.0000
     92 H12B      -11.9990   10.7690   -4.2730 H         1 PMC1        0.0000
     93 CA13      -14.0460   10.1450   -4.6010 C.3       1 PMC1        0.0000
     94 H13A      -14.3720   11.2040   -4.5010 H         1 PMC1        0.0000
     95 H13B      -14.1580    9.6630   -3.6040 H         1 PMC1        0.0000
     96 CA14      -14.9620    9.4340   -5.6110 C.3       1 PMC1        0.0000
     97 H14A      -14.6380    8.3740   -5.7100 H         1 PMC1        0.0000
     98 H14B      -14.8480    9.9160   -6.6070 H         1 PMC1        0.0000
     99 CA15      -16.4490    9.4430   -5.2160 C.3       1 PMC1        0.0000
    100 H15A      -16.5570    8.9570   -4.2200 H         1 PMC1        0.0000
    101 H15B      -17.0070    8.8180   -5.9510 H         1 PMC1        0.0000
    102 CA16      -17.0900   10.8340   -5.1710 C.3       1 PMC1        0.0000
    103 H16A      -16.9760   11.3460   -6.1510 H         1 PMC1        0.0000
    104 H16B      -16.6160   11.4640   -4.3890 H         1 PMC1        0.0000
    105 H16C      -18.1740   10.7550   -4.9410 H         1 PMC1        0.0000
    106 CB3        -6.3300    7.1780   -7.6410 C.3       1 PMC1        0.0000
    107 H3D        -5.2460    7.3910   -7.7820 H         1 PMC1        0.0000
    108 H3E        -6.7610    8.0380   -7.0780 H         1 PMC1        0.0000
    109 CB4        -7.0270    7.1210   -9.0110 C.3       1 PMC1        0.0000
    110 H4D        -6.8290    8.0760   -9.5500 H         1 PMC1        0.0000
    111 H4E        -8.1260    7.0540   -8.8460 H         1 PMC1        0.0000
    112 CB5        -6.5960    5.9490   -9.9090 C.3       1 PMC1        0.0000
    113 H5D        -7.1570    6.0170  -10.8690 H         1 PMC1        0.0000
    114 H5E        -6.8820    4.9870   -9.4300 H         1 PMC1        0.0000
    115 CB6        -5.0930    5.9240  -10.2230 C.3       1 PMC1        0.0000
    116 H6D        -4.5160    5.8170   -9.2780 H         1 PMC1        0.0000
    117 H6E        -4.7990    6.8900  -10.6900 H         1 PMC1        0.0000
    118 CB7        -4.7110    4.7720  -11.1630 C.3       1 PMC1        0.0000
    119 H7D        -5.2570    4.8900  -12.1250 H         1 PMC1        0.0000
    120 H7E        -5.0340    3.8090  -10.7070 H         1 PMC1        0.0000
    121 CB8        -3.2040    4.7090  -11.4420 C.3       1 PMC1        0.0000
    122 H8D        -2.6610    4.5690  -10.4800 H         1 PMC1        0.0000
    123 H8E        -2.8730    5.6770  -11.8810 H         1 PMC1        0.0000
    124 CB9        -2.8260    3.5680  -12.3960 C.3       1 PMC1        0.0000
    125 H9D        -3.3750    3.7060  -13.3540 H         1 PMC1        0.0000
    126 H9E        -3.1550    2.6020  -11.9530 H         1 PMC1        0.0000
    127 CB10       -1.3160    3.5050  -12.6690 C.3       1 PMC1        0.0000
    128 H10D       -0.7860    3.4410  -11.6910 H         1 PMC1        0.0000
    129 H10E       -0.9930    4.4470  -13.1660 H         1 PMC1        0.0000
    130 CB11       -0.8890    2.3040  -13.5300 C.3       1 PMC1        0.0000
    131 H11D       -1.2280    1.3650  -13.0400 H         1 PMC1        0.0000
    132 H11E        0.2230    2.2830  -13.5650 H         1 PMC1        0.0000
    133 CB12       -1.4330    2.3470  -14.9680 C.3       1 PMC1        0.0000
    134 H12D       -1.0900    3.2840  -15.4610 H         1 PMC1        0.0000
    135 H12E       -2.5450    2.3730  -14.9330 H         1 PMC1        0.0000
    136 CB13       -1.0120    1.1420  -15.8260 C.3       1 PMC1        0.0000
    137 H13D       -1.5420    1.2040  -16.8030 H         1 PMC1        0.0000
    138 H13E       -1.3410    0.2040  -15.3250 H         1 PMC1        0.0000
    139 CB14        0.4980    1.0680  -16.0990 C.3       1 PMC1        0.0000
    140 H14D        1.0450    0.9360  -15.1400 H         1 PMC1        0.0000
    141 H14E        0.8330    2.0280  -16.5510 H         1 PMC1        0.0000
    142 CB15        0.8710   -0.0850  -17.0410 C.3       1 PMC1        0.0000
    143 H15D        0.3230    0.0460  -18.0020 H         1 PMC1        0.0000
    144 H15E        0.5260   -1.0430  -16.5880 H         1 PMC1        0.0000
    145 CB16        2.3720   -0.1740  -17.3250 C.3       1 PMC1        0.0000
    146 H16D        2.9380   -0.3290  -16.3820 H         1 PMC1        0.0000
    147 H16E        2.7340    0.7640  -17.8000 H         1 PMC1        0.0000
    148 H16F        2.5910   -1.0210  -18.0100 H         1 PMC1        0.0000
    149 CC3        -2.3370    4.9050   -5.4700 C.3       1 PMC1        0.0000
    150 H3R        -2.5780    5.9060   -5.0470 H         1 PMC1        0.0000
    151 H3S        -3.0470    4.1790   -5.0160 H         1 PMC1        0.0000
    152 CC4        -2.5690    4.9520   -6.9900 C.3       1 PMC1        0.0000
    153 H4R        -3.6420    5.1820   -7.1690 H         1 PMC1        0.0000
    154 H4S        -2.3690    3.9430   -7.4160 H         1 PMC1        0.0000
    155 CC5        -1.7240    5.9930   -7.7490 C.3       1 PMC1        0.0000
    156 H5R        -2.0480    6.0030   -8.8140 H         1 PMC1        0.0000
    157 H5S        -0.6550    5.6860   -7.7360 H         1 PMC1        0.0000
    158 CC6        -1.8370    7.4200   -7.1920 C.3       1 PMC1        0.0000
    159 H6R        -1.4410    7.4450   -6.1520 H         1 PMC1        0.0000
    160 H6S        -2.9090    7.7170   -7.1530 H         1 PMC1        0.0000
    161 CC7        -1.0580    8.4420   -8.0300 C.3       1 PMC1        0.0000
    162 H7R        -1.4630    8.4510   -9.0670 H         1 PMC1        0.0000
    163 H7S         0.0080    8.1270   -8.0850 H         1 PMC1        0.0000
    164 CC8        -1.1290    9.8600   -7.4470 C.3       1 PMC1        0.0000
    165 H8R        -0.7320    9.8450   -6.4070 H         1 PMC1        0.0000
    166 H8S        -2.1940   10.1810   -7.3970 H         1 PMC1        0.0000
    167 CC9        -0.3330   10.8780   -8.2750 C.3       1 PMC1        0.0000
    168 H9R        -0.7320   10.8890   -9.3130 H         1 PMC1        0.0000
    169 H9S         0.7290   10.5490   -8.3240 H         1 PMC1        0.0000
    170 CC10       -0.3940   12.2940   -7.6840 C.3       1 PMC1        0.0000
    171 H10R       -0.1020   12.2410   -6.6110 H         1 PMC1        0.0000
    172 H10S       -1.4430   12.6650   -7.7250 H         1 PMC1        0.0000
    173 CC11        0.5320   13.3020   -8.3870 C.3       1 PMC1        0.0000
    174 H11R        1.5770   12.9230   -8.3530 H         1 PMC1        0.0000
    175 H11S        0.5020   14.2560   -7.8150 H         1 PMC1        0.0000
    176 CC12        0.1470   13.5820   -9.8480 C.3       1 PMC1        0.0000
    177 H12R       -0.8910   13.9810   -9.8830 H         1 PMC1        0.0000
    178 H12S        0.1590   12.6250  -10.4160 H         1 PMC1        0.0000
    179 CC13        1.0920   14.5670  -10.5580 C.3       1 PMC1        0.0000
    180 H13R        0.7960   14.6270  -11.6310 H         1 PMC1        0.0000
    181 H13S        2.1310   14.1710  -10.5190 H         1 PMC1        0.0000
    182 CC14        1.0690   15.9860   -9.9710 C.3       1 PMC1        0.0000
    183 H14R        1.4280   15.9620   -8.9180 H         1 PMC1        0.0000
    184 H14S        0.0200   16.3600   -9.9630 H         1 PMC1        0.0000
    185 CC15        1.9420   16.9670  -10.7650 C.3       1 PMC1        0.0000
    186 H15R        1.5830   16.9940  -11.8190 H         1 PMC1        0.0000
    187 H15S        2.9880   16.5850  -10.7780 H         1 PMC1        0.0000
    188 CC16        1.9310   18.3880  -10.1940 C.3       1 PMC1        0.0000
    189 H16R        2.3090   18.3890   -9.1490 H         1 PMC1        0.0000
    190 H16S        0.8990   18.7990  -10.1930 H         1 PMC1        0.0000
    191 H16T        2.5760   19.0580  -10.8020 H         1 PMC1        0.0000
    192 CD3         2.0640   10.9500   -4.5650 C.3       1 PMC1        0.0000
    193 H3X         2.4450   11.4170   -3.6290 H         1 PMC1        0.0000
    194 H3Y         0.9720   11.1700   -4.6160 H         1 PMC1        0.0000
    195 CD4         2.7520   11.6120   -5.7710 C.3       1 PMC1        0.0000
    196 H4X         2.5270   12.7030   -5.7490 H         1 PMC1        0.0000
    197 H4Y         2.3090   11.1990   -6.7050 H         1 PMC1        0.0000
    198 CD5         4.2800   11.4290   -5.8340 C.3       1 PMC1        0.0000
    199 H5X         4.6620   11.9800   -6.7230 H         1 PMC1        0.0000
    200 H5Y         4.5220   10.3540   -5.9860 H         1 PMC1        0.0000
    201 CD6         5.0190   11.9380   -4.5880 C.3       1 PMC1        0.0000
    202 H6X         4.6920   11.3550   -3.6980 H         1 PMC1        0.0000
    203 H6Y         4.7480   13.0040   -4.4130 H         1 PMC1        0.0000
    204 CD7         6.5440   11.8200   -4.7140 C.3       1 PMC1        0.0000
    205 H7X         6.8880   12.4200   -5.5860 H         1 PMC1        0.0000
    206 H7Y         6.8110   10.7570   -4.9060 H         1 PMC1        0.0000
    207 CD8         7.2750   12.3000   -3.4520 C.3       1 PMC1        0.0000
    208 H8X         6.9220   11.7030   -2.5810 H         1 PMC1        0.0000
    209 H8Y         7.0130   13.3640   -3.2610 H         1 PMC1        0.0000
    210 CD9         8.8000   12.1690   -3.5620 C.3       1 PMC1        0.0000
    211 H9X         9.1510   12.7700   -4.4300 H         1 PMC1        0.0000
    212 H9Y         9.0600   11.1050   -3.7590 H         1 PMC1        0.0000
    213 CD10        9.5210   12.6310   -2.2870 C.3       1 PMC1        0.0000
    214 H10X        9.1020   12.0660   -1.4240 H         1 PMC1        0.0000
    215 H10Y        9.3100   13.7100   -2.1150 H         1 PMC1        0.0000
    216 CD11       11.0440   12.4110   -2.3150 C.3       1 PMC1        0.0000
    217 H11X       11.2540   11.3350   -2.5060 H         1 PMC1        0.0000
    218 H11Y       11.4450   12.6580   -1.3070 H         1 PMC1        0.0000
    219 CD12       11.7740   13.2640   -3.3650 C.3       1 PMC1        0.0000
    220 H12X       11.5610   14.3390   -3.1750 H         1 PMC1        0.0000
    221 H12Y       11.3740   13.0150   -4.3740 H         1 PMC1        0.0000
    222 CD13       13.2970   13.0470   -3.3890 C.3       1 PMC1        0.0000
    223 H13X       13.7190   13.6140   -4.2500 H         1 PMC1        0.0000
    224 H13Y       13.5110   11.9690   -3.5600 H         1 PMC1        0.0000
    225 CD14       14.0110   13.5100   -2.1100 C.3       1 PMC1        0.0000
    226 H14X       13.6560   12.9100   -1.2440 H         1 PMC1        0.0000
    227 H14Y       13.7510   14.5750   -1.9140 H         1 PMC1        0.0000
    228 CD15       15.5370   13.3790   -2.2060 C.3       1 PMC1        0.0000
    229 H15X       15.8950   13.9800   -3.0730 H         1 PMC1        0.0000
    230 H15Y       15.7920   12.3140   -2.4110 H         1 PMC1        0.0000
    231 CD16       16.2660   13.8370   -0.9400 C.3       1 PMC1        0.0000
    232 H16X       15.9420   13.2340   -0.0650 H         1 PMC1        0.0000
    233 H16Y       16.0450   14.9060   -0.7300 H         1 PMC1        0.0000
    234 H16Z       17.3650   13.7220   -1.0590 H         1 PMC1        0.0000
@<TRIPOS>BOND
     1  148  145 1 
     2  143  142 1 
     3  147  145 1 
     4  145  142 1 
     5  145  146 1 
     6  142  144 1 
     7  142  139 1 
     8  137  136 1 
     9  141  139 1 
    10  139  136 1 
    11  139  140 1 
    12  136  138 1 
    13  136  133 1 
    14  134  133 1 
    15  133  135 1 
    16  133  130 1 
    17  132  130 1 
    18  130  131 1 
    19  130  127 1 
    20  125  124 1 
    21  129  127 1 
    22  127  124 1 
    23  127  128 1 
    24  124  126 1 
    25  124  121 1 
    26  119  118 1 
    27  123  121 1 
    28  186  185 1 
    29  180  179 1 
    30  121  118 1 
    31  121  122 1 
    32  118  120 1 
    33  118  115 1 
    34  113  112 1 
    35  191  188 1 
    36  187  185 1 
    37  185  188 1 
    38  185  182 1 
    39  117  115 1 
    40  179  181 1 
    41  179  182 1 
    42  179  176 1 
    43  178  176 1 
    44  115  112 1 
    45  115  116 1 
    46  188  190 1 
    47  188  189 1 
    48  182  184 1 
    49  182  183 1 
    50  112  114 1 
    51  112  109 1 
    52  177  176 1 
    53  176  173 1 
    54  110  109 1 
    55  168  167 1 
    56  162  161 1 
    57  109  111 1 
    58  109  106 1 
    59  156  155 1 
    60  173  174 1 
    61  173  175 1 
    62  173  170 1 
    63  169  167 1 
    64  167  170 1 
    65  167  164 1 
    66  163  161 1 
    67  161  164 1 
    68  161  158 1 
    69  107  106 1 
    70  155  157 1 
    71  155  158 1 
    72  155  152 1 
    73  172  170 1 
    74  170  171 1 
    75  106  108 1 
    76  106   42 1 
    77  164  166 1 
    78  164  165 1 
    79   83   82 1 
    80  154  152 1 
    81   44   42 1 
    82  158  160 1 
    83  158  159 1 
    84  153  152 1 
    85   84   82 1 
    86  152  149 1 
    87   42   43 1 
    88   42   40 1 
    89   79   77 1 
    90   82   80 1 
    91   82   85 1 
    92  199  198 1 
    93  197  195 1 
    94   98   96 1 
    95   78   77 1 
    96  103  102 1 
    97   77   80 1 
    98   77   74 1 
    99   91   90 1 
   100  200  198 1 
   101  101   99 1 
   102   80   81 1 
   103   80   85 1 
   104  198  195 1 
   105  198  201 1 
   106   89   87 1 
   107  195  196 1 
   108  195  192 1 
   109   52   50 1 
   110   97   96 1 
   111   73   71 1 
   112   96   99 1 
   113   96   93 1 
   114  205  204 1 
   115   72   71 1 
   116  149   50 1 
   117  149  150 1 
   118  149  151 1 
   119   60   59 1 
   120   40   41 2 
   121   40   39 1 
   122   85   87 1 
   123   85   86 1 
   124   99  102 1 
   125   99  100 1 
   126  102  105 1 
   127  102  104 1 
   128   51   50 1 
   129   50   48 1 
   130   87   90 1 
   131   87   88 1 
   132   90   93 1 
   133   90   92 1 
   134   71   74 1 
   135   71   68 1 
   136  206  204 1 
   137   39   36 1 
   138   74   75 1 
   139   74   76 1 
   140  204  201 1 
   141  204  207 1 
   142  194  192 1 
   143   93   94 1 
   144   93   95 1 
   145  201  203 1 
   146  201  202 1 
   147  192   59 1 
   148  192  193 1 
   149   59   61 1 
   150   59   57 1 
   151  211  210 1 
   152   64   62 1 
   153  221  219 1 
   154  223  222 1 
   155   70   68 1 
   156   63   62 1 
   157  212  210 1 
   158   29   28 1 
   159   68   69 1 
   160   68   65 1 
   161   48   47 1 
   162   48   49 2 
   163  210  207 1 
   164  210  213 1 
   165  224  222 1 
   166   47   45 1 
   167   62   65 1 
   168   62   33 1 
   169  207  209 1 
   170  207  208 1 
   171   36   37 1 
   172   36   28 1 
   173   36   38 1 
   174  222  219 1 
   175  222  225 1 
   176  219  220 1 
   177  219  216 1 
   178   56   57 1 
   179   56   53 1 
   180   57   58 2 
   181  229  228 1 
   182   30   28 1 
   183   30   31 1 
   184   22   19 2 
   185   35   33 1 
   186   28   25 1 
   187   65   66 1 
   188   65   67 1 
   189   33   31 1 
   190   33   34 1 
   191  217  216 1 
   192    6    4 2 
   193   46   45 1 
   194  230  228 1 
   195   45   53 1 
   196   45    9 1 
   197  216  213 1 
   198  216  218 1 
   199  213  215 1 
   200  213  214 1 
   201   31   32 2 
   202  228  225 1 
   203  228  231 1 
   204   53   55 1 
   205   53   54 1 
   206  225  227 1 
   207  225  226 1 
   208   18   16 1 
   209   17   16 1 
   210   19   23 1 
   211   19   24 1 
   212   19   20 1 
   213   26   25 1 
   214   25   24 1 
   215   25   27 1 
   216   16   23 1 
   217   16   12 1 
   218    4    8 1 
   219    4    5 1 
   220    4    7 1 
   221    8    9 1 
   222    9   11 1 
   223    9   10 1 
   224  234  231 1 
   225   21   20 1 
   226  231  233 1 
   227  231  232 1 
   228    3    1 1 
   229    1    7 1 
   230    1   12 1 
   231    1    2 1 
   232   12   13 1 
   233   12   14 1 
   234   15   14 1 
