@<TRIPOS>MOLECULE
C:\Users\Praveer\PycharmProjects\pdb_to_mol2_converter\data\pdb\pmcl2.pdb
  233   233     0     0     0
SMALL
GASTEIGER

@<TRIPOS>ATOM
      1 C3          1.5450   -0.0140   -0.0290 C.3       1 PMC1        0.0000
      2 HG31        1.8850   -0.5630    0.8810 H         1 PMC1        0.0000
      3 HG32        1.8880   -0.5750   -0.9300 H         1 PMC1        0.0000
      4 P3          3.6300    1.5290    0.0310 P.3       1 PMC1        0.0000
      5 OP33        4.1440    0.9390    1.2850 O.3       1 PMC1        0.0000
      6 OP34        3.9560    2.9430   -0.2550 O.2       1 PMC1        0.0000
      7 OP31        2.0540    1.3300   -0.0460 O.3       1 PMC1        0.0000
      8 OP32        4.1230    0.6370   -1.1870 O.3       1 PMC1        0.0000
      9 C31         4.1800    1.2100   -2.4950 C.3       1 PMC1        0.0000
     10 H31J        5.1140    1.8110   -2.5860 H         1 PMC1        0.0000
     11 H31K        3.3250    1.8960   -2.6980 H         1 PMC1        0.0000
     12 C2         -0.0050   -0.0270   -0.0280 C.3       1 PMC1        0.0000
     13 HG22       -0.3580    0.3800    0.9470 H         1 PMC1        0.0000
     14 OG12       -0.4160    0.8460   -1.0710 O.3       1 PMC1        0.0000
     15 HO12        0.2820    1.5130   -1.0090 H         1 PMC1        0.0000
     16 C1         -0.5780   -1.4610   -0.2210 C.3       1 PMC1        0.0000
     17 HG11        0.0690   -2.1630    0.3540 H         1 PMC1        0.0000
     18 HG12       -0.4620   -1.7370   -1.2910 H         1 PMC1        0.0000
     19 P1         -2.3930   -1.9050    1.6410 P.3       1 PMC1        0.0000
     20 OP13       -2.1420   -0.7230    2.4920 O.3       1 PMC1        0.0000
     21 OP14       -3.7650   -2.4610    1.6420 O.2       1 PMC1        0.0000
     22 OP11       -1.9590   -1.5860    0.1450 O.3       1 PMC1        0.0000
     23 OP12       -1.3650   -3.0440    2.0590 O.3       1 PMC1        0.0000
     24 C11        -1.6570   -4.4340    1.9230 C.3       1 PMC1        0.0000
     25 H11J       -2.6970   -4.6720    2.2450 H         1 PMC1        0.0000
     26 H11K       -0.9690   -4.9860    2.5990 H         1 PMC1        0.0000
     27 C12        -1.4270   -4.9550    0.4790 C.3       1 PMC1        0.0000
     28 H12J       -0.4690   -4.5100    0.1180 H         1 PMC1        0.0000
     29 O12        -2.5550   -4.5590   -0.3100 O.3       1 PMC1        0.0000
     30 CA1        -2.3100   -4.2230   -1.5590 C.2       1 PMC1        0.0000
     31 OA1        -1.2420   -4.3310   -2.1400 O.2       1 PMC1        0.0000
     32 CA2        -3.6200   -3.7280   -2.1830 C.3       1 PMC1        0.0000
     33 H2A        -3.7080   -2.6430   -1.9650 H         1 PMC1        0.0000
     34 H2B        -4.4530   -4.2500   -1.6680 H         1 PMC1        0.0000
     35 C13        -1.3060   -6.5050    0.4530 C.3       1 PMC1        0.0000
     36 H13J       -2.2780   -6.9090    0.8160 H         1 PMC1        0.0000
     37 H13K       -0.5280   -6.8310    1.1820 H         1 PMC1        0.0000
     38 O13        -1.0640   -7.0130   -0.8770 O.3       1 PMC1        0.0000
     39 CB1         0.2120   -6.9760   -1.2570 C.2       1 PMC1        0.0000
     40 OB1         1.1560   -6.7100   -0.5350 O.2       1 PMC1        0.0000
     41 CB2         0.3130   -7.3490   -2.7350 C.3       1 PMC1        0.0000
     42 H2D         0.1270   -6.4260   -3.3230 H         1 PMC1        0.0000
     43 H2E        -0.4850   -8.0830   -2.9640 H         1 PMC1        0.0000
     44 C32         4.2290    0.0900   -3.5720 C.3       1 PMC1        0.0000
     45 H32J        4.5650    0.5470   -4.5320 H         1 PMC1        0.0000
     46 O32         2.9420   -0.5390   -3.7290 O.3       1 PMC1        0.0000
     47 CC1         2.0290    0.2270   -4.3070 C.2       1 PMC1        0.0000
     48 OC1         2.2520    1.2670   -4.9040 O.2       1 PMC1        0.0000
     49 CC2         0.6560   -0.4180   -4.1090 C.3       1 PMC1        0.0000
     50 H2R         0.5790   -0.6540   -3.0260 H         1 PMC1        0.0000
     51 H2S         0.6210   -1.3730   -4.6660 H         1 PMC1        0.0000
     52 C33         5.2700   -0.9920   -3.1730 C.3       1 PMC1        0.0000
     53 H33J        4.8420   -1.5480   -2.3080 H         1 PMC1        0.0000
     54 H33K        6.1930   -0.4920   -2.7980 H         1 PMC1        0.0000
     55 O33         5.5390   -1.9220   -4.2490 O.3       1 PMC1        0.0000
     56 CD1         6.4710   -1.5310   -5.1060 C.2       1 PMC1        0.0000
     57 OD1         7.1180   -0.5010   -5.0370 O.2       1 PMC1        0.0000
     58 CD2         6.5940   -2.5510   -6.2360 C.3       1 PMC1        0.0000
     59 H2X         6.5160   -1.9800   -7.1850 H         1 PMC1        0.0000
     60 H2Y         5.7460   -3.2630   -6.1830 H         1 PMC1        0.0000
     61 CA3        -3.7020   -4.0030   -3.7010 C.3       1 PMC1        0.0000
     62 H3A        -4.7730   -4.1250   -3.9840 H         1 PMC1        0.0000
     63 H3B        -3.1870   -4.9580   -3.9460 H         1 PMC1        0.0000
     64 CA4        -3.1330   -2.8530   -4.5420 C.3       1 PMC1        0.0000
     65 H4A        -2.1340   -2.5610   -4.1490 H         1 PMC1        0.0000
     66 H4B        -3.7940   -1.9670   -4.4100 H         1 PMC1        0.0000
     67 CA5        -3.0370   -3.1900   -6.0400 C.3       1 PMC1        0.0000
     68 H5A        -2.8130   -2.2510   -6.5890 H         1 PMC1        0.0000
     69 H5B        -4.0290   -3.5490   -6.3930 H         1 PMC1        0.0000
     70 CA6        -1.9620   -4.2340   -6.4030 C.3       1 PMC1        0.0000
     71 H6A        -1.9310   -4.3410   -7.5100 H         1 PMC1        0.0000
     72 H6B        -2.2490   -5.2210   -5.9780 H         1 PMC1        0.0000
     73 CA7        -0.5550   -3.8750   -5.9000 C.3       1 PMC1        0.0000
     74 H7A        -0.5590   -3.8650   -4.7850 H         1 PMC1        0.0000
     75 H7B        -0.2930   -2.8530   -6.2450 H         1 PMC1        0.0000
     76 CA8         0.5270   -4.8680   -6.3530 C.3       1 PMC1        0.0000
     77 H8A         0.6620   -4.8010   -7.4520 H         1 PMC1        0.0000
     78 H8B         0.1870   -5.9020   -6.1210 H         1 PMC1        0.0000
     79 CA9         1.8410   -4.6090   -5.6130 C.3       1 PMC1        0.0000
     80 H9A         1.8780   -4.8620   -4.5380 H         1 PMC1        0.0000
     81 CA17        3.1380   -4.8230   -6.3840 C.3       1 PMC1        0.0000
     82 H17A        2.9890   -5.0460   -7.4300 H         1 PMC1        0.0000
     83 H17B        3.9450   -5.2010   -5.7720 H         1 PMC1        0.0000
     84 CA10        2.6880   -3.4170   -5.9860 C.3       1 PMC1        0.0000
     85 H10A        3.2520   -2.9670   -5.1500 H         1 PMC1        0.0000
     86 CA11        2.3170   -2.5250   -7.1700 C.3       1 PMC1        0.0000
     87 H11A        1.5620   -1.7820   -6.8370 H         1 PMC1        0.0000
     88 H11B        1.8780   -3.1190   -7.9970 H         1 PMC1        0.0000
     89 CA12        3.5580   -1.7720   -7.6770 C.3       1 PMC1        0.0000
     90 H12A        4.3010   -2.5100   -8.0520 H         1 PMC1        0.0000
     91 H12B        4.0100   -1.2350   -6.8120 H         1 PMC1        0.0000
     92 CA13        3.2730   -0.7400   -8.7810 C.3       1 PMC1        0.0000
     93 H13A        4.2170   -0.1880   -8.9870 H         1 PMC1        0.0000
     94 H13B        2.5320    0.0000   -8.4070 H         1 PMC1        0.0000
     95 CA14        2.7580   -1.3530  -10.0920 C.3       1 PMC1        0.0000
     96 H14A        1.8050   -1.8890   -9.8870 H         1 PMC1        0.0000
     97 H14B        3.4910   -2.1020  -10.4650 H         1 PMC1        0.0000
     98 CA15        2.4970   -0.3110  -11.1910 C.3       1 PMC1        0.0000
     99 H15A        1.8180    0.4740  -10.7850 H         1 PMC1        0.0000
    100 H15B        1.9560   -0.8120  -12.0250 H         1 PMC1        0.0000
    101 CA16        3.7590    0.3510  -11.7540 C.3       1 PMC1        0.0000
    102 H16A        4.4530   -0.4180  -12.1550 H         1 PMC1        0.0000
    103 H16B        4.2880    0.9250  -10.9640 H         1 PMC1        0.0000
    104 H16C        3.4970    1.0510  -12.5750 H         1 PMC1        0.0000
    105 CB3         1.7020   -7.9310   -3.0870 C.3       1 PMC1        0.0000
    106 H3D         1.8790   -8.8550   -2.4910 H         1 PMC1        0.0000
    107 H3E         2.4910   -7.1980   -2.7980 H         1 PMC1        0.0000
    108 CB4         1.8770   -8.2560   -4.5790 C.3       1 PMC1        0.0000
    109 H4D         2.8870   -8.7000   -4.7250 H         1 PMC1        0.0000
    110 H4E         1.8510   -7.3060   -5.1570 H         1 PMC1        0.0000
    111 CB5         0.8260   -9.2120   -5.1680 C.3       1 PMC1        0.0000
    112 H5D         1.0810   -9.3940   -6.2370 H         1 PMC1        0.0000
    113 H5E        -0.1740   -8.7250   -5.1490 H         1 PMC1        0.0000
    114 CB6         0.7390  -10.5640   -4.4430 C.3       1 PMC1        0.0000
    115 H6D         0.3730  -10.4020   -3.4050 H         1 PMC1        0.0000
    116 H6E         1.7550  -11.0120   -4.3750 H         1 PMC1        0.0000
    117 CB7        -0.2000  -11.5520   -5.1510 C.3       1 PMC1        0.0000
    118 H7D         0.1890  -11.7680   -6.1710 H         1 PMC1        0.0000
    119 H7E        -1.2000  -11.0750   -5.2630 H         1 PMC1        0.0000
    120 CB8        -0.3630  -12.8680   -4.3800 C.3       1 PMC1        0.0000
    121 H8D        -0.7050  -12.6350   -3.3460 H         1 PMC1        0.0000
    122 H8E         0.6230  -13.3790   -4.3030 H         1 PMC1        0.0000
    123 CB9        -1.3800  -13.8150   -5.0330 C.3       1 PMC1        0.0000
    124 H9D        -1.0100  -14.1100   -6.0400 H         1 PMC1        0.0000
    125 H9E        -2.3390  -13.2670   -5.1720 H         1 PMC1        0.0000
    126 CB10       -1.6500  -15.0670   -4.1850 C.3       1 PMC1        0.0000
    127 H10D       -1.9120  -14.7370   -3.1540 H         1 PMC1        0.0000
    128 H10E       -0.7240  -15.6790   -4.1160 H         1 PMC1        0.0000
    129 CB11       -2.8040  -15.9370   -4.7140 C.3       1 PMC1        0.0000
    130 H11D       -3.7130  -15.3050   -4.8250 H         1 PMC1        0.0000
    131 H11E       -3.0280  -16.7170   -3.9530 H         1 PMC1        0.0000
    132 CB12       -2.4980  -16.6250   -6.0530 C.3       1 PMC1        0.0000
    133 H12D       -1.6260  -17.3030   -5.9200 H         1 PMC1        0.0000
    134 H12E       -2.2150  -15.8530   -6.8020 H         1 PMC1        0.0000
    135 CB13       -3.6780  -17.4330   -6.6190 C.3       1 PMC1        0.0000
    136 H13D       -3.3950  -17.8080   -7.6290 H         1 PMC1        0.0000
    137 H13E       -4.5560  -16.7600   -6.7450 H         1 PMC1        0.0000
    138 CB14       -4.0810  -18.6340   -5.7520 C.3       1 PMC1        0.0000
    139 H14D       -4.4330  -18.2780   -4.7580 H         1 PMC1        0.0000
    140 H14E       -3.1880  -19.2780   -5.5840 H         1 PMC1        0.0000
    141 CB15       -5.1910  -19.4790   -6.3920 C.3       1 PMC1        0.0000
    142 H15D       -4.8400  -19.8360   -7.3870 H         1 PMC1        0.0000
    143 H15E       -6.0800  -18.8300   -6.5650 H         1 PMC1        0.0000
    144 CB16       -5.6050  -20.6830   -5.5420 C.3       1 PMC1        0.0000
    145 H16D       -5.9820  -20.3480   -4.5520 H         1 PMC1        0.0000
    146 H16E       -4.7370  -21.3580   -5.3760 H         1 PMC1        0.0000
    147 H16F       -6.4080  -21.2610   -6.0470 H         1 PMC1        0.0000
    148 CC3        -0.5390    0.4930   -4.4890 C.3       1 PMC1        0.0000
    149 H3R        -0.3080    1.5650   -4.3040 H         1 PMC1        0.0000
    150 H3S        -1.3740    0.2280   -3.7940 H         1 PMC1        0.0000
    151 CC4        -1.0640    0.2830   -5.9190 C.3       1 PMC1        0.0000
    152 H4R        -2.0460    0.7980   -6.0160 H         1 PMC1        0.0000
    153 H4S        -1.2380   -0.8030   -6.0610 H         1 PMC1        0.0000
    154 CC5        -0.1310    0.8140   -7.0180 C.3       1 PMC1        0.0000
    155 H5R         0.8570    0.3140   -6.9270 H         1 PMC1        0.0000
    156 H5S         0.0390    1.9010   -6.8480 H         1 PMC1        0.0000
    157 CC6        -0.6590    0.5980   -8.4470 C.3       1 PMC1        0.0000
    158 H6R         0.0870    1.0180   -9.1600 H         1 PMC1        0.0000
    159 H6S        -1.6090    1.1610   -8.5800 H         1 PMC1        0.0000
    160 CC7        -0.8930   -0.8800   -8.7920 C.3       1 PMC1        0.0000
    161 H7R        -1.7410   -1.2680   -8.1880 H         1 PMC1        0.0000
    162 H7S         0.0120   -1.4610   -8.5120 H         1 PMC1        0.0000
    163 CC8        -1.1960   -1.1280  -10.2750 C.3       1 PMC1        0.0000
    164 H8R        -0.3430   -0.7570  -10.8840 H         1 PMC1        0.0000
    165 H8S        -2.1000   -0.5490  -10.5680 H         1 PMC1        0.0000
    166 CC9        -1.4300   -2.6180  -10.5670 C.3       1 PMC1        0.0000
    167 H9R        -2.2830   -2.9630   -9.9380 H         1 PMC1        0.0000
    168 H9S        -0.5360   -3.1990  -10.2520 H         1 PMC1        0.0000
    169 CC10       -1.7590   -2.9240  -12.0390 C.3       1 PMC1        0.0000
    170 H10R       -2.6570   -2.3340  -12.3300 H         1 PMC1        0.0000
    171 H10S       -2.0260   -4.0010  -12.1260 H         1 PMC1        0.0000
    172 CC11       -0.6260   -2.6280  -13.0390 C.3       1 PMC1        0.0000
    173 H11R       -0.3620   -1.5480  -13.0010 H         1 PMC1        0.0000
    174 H11S       -1.0140   -2.8370  -14.0610 H         1 PMC1        0.0000
    175 CC12        0.6410   -3.4680  -12.8070 C.3       1 PMC1        0.0000
    176 H12R        0.3700   -4.5470  -12.8030 H         1 PMC1        0.0000
    177 H12S        1.0550   -3.2210  -11.8050 H         1 PMC1        0.0000
    178 CC13        1.7440   -3.2310  -13.8530 C.3       1 PMC1        0.0000
    179 H13R        2.6650   -3.7620  -13.5180 H         1 PMC1        0.0000
    180 H13S        1.9830   -2.1460  -13.9000 H         1 PMC1        0.0000
    181 CC14        1.3850   -3.7320  -15.2600 C.3       1 PMC1        0.0000
    182 H14R        0.5030   -3.1720  -15.6430 H         1 PMC1        0.0000
    183 H14S        1.1050   -4.8070  -15.2030 H         1 PMC1        0.0000
    184 CC15        2.5410   -3.5690  -16.2560 C.3       1 PMC1        0.0000
    185 H15R        3.4250   -4.1290  -15.8750 H         1 PMC1        0.0000
    186 H15S        2.8230   -2.4930  -16.3040 H         1 PMC1        0.0000
    187 CC16        2.2010   -4.0640  -17.6650 C.3       1 PMC1        0.0000
    188 H16R        1.3350   -3.5010  -18.0760 H         1 PMC1        0.0000
    189 H16S        1.9390   -5.1440  -17.6450 H         1 PMC1        0.0000
    190 H16T        3.0670   -3.9250  -18.3470 H         1 PMC1        0.0000
    191 CD3         7.9390   -3.3090   -6.2140 C.3       1 PMC1        0.0000
    192 H3X         7.9520   -4.0240   -5.3610 H         1 PMC1        0.0000
    193 H3Y         8.7740   -2.5860   -6.0570 H         1 PMC1        0.0000
    194 CD4         8.2180   -4.0600   -7.5280 C.3       1 PMC1        0.0000
    195 H4X         9.1830   -4.6060   -7.4330 H         1 PMC1        0.0000
    196 H4Y         8.3400   -3.3080   -8.3410 H         1 PMC1        0.0000
    197 CD5         7.1230   -5.0540   -7.9520 C.3       1 PMC1        0.0000
    198 H5X         7.4170   -5.4940   -8.9330 H         1 PMC1        0.0000
    199 H5Y         6.1620   -4.5180   -8.1100 H         1 PMC1        0.0000
    200 CD6         6.9040   -6.2020   -6.9560 C.3       1 PMC1        0.0000
    201 H6X         6.5320   -5.7950   -5.9890 H         1 PMC1        0.0000
    202 H6Y         7.8800   -6.7000   -6.7610 H         1 PMC1        0.0000
    203 CD7         5.9080   -7.2450   -7.4800 C.3       1 PMC1        0.0000
    204 H7X         6.2660   -7.6220   -8.4650 H         1 PMC1        0.0000
    205 H7Y         4.9210   -6.7590   -7.6450 H         1 PMC1        0.0000
    206 CD8         5.7340   -8.4370   -6.5300 C.3       1 PMC1        0.0000
    207 H8X         5.3830   -8.0700   -5.5390 H         1 PMC1        0.0000
    208 H8Y         6.7230   -8.9260   -6.3800 H         1 PMC1        0.0000
    209 CD9         4.7380   -9.4740   -7.0670 C.3       1 PMC1        0.0000
    210 H9X         5.0560   -9.7820   -8.0880 H         1 PMC1        0.0000
    211 H9Y         3.7350   -9.0000   -7.1530 H         1 PMC1        0.0000
    212 CD10        4.6350  -10.7160   -6.1710 C.3       1 PMC1        0.0000
    213 H10X        4.4260  -10.3820   -5.1300 H         1 PMC1        0.0000
    214 H10Y        5.6110  -11.2500   -6.1600 H         1 PMC1        0.0000
    215 CD11        3.5240  -11.6910   -6.5950 C.3       1 PMC1        0.0000
    216 H11X        2.5610  -11.1380   -6.6530 H         1 PMC1        0.0000
    217 H11Y        3.4200  -12.4650   -5.8020 H         1 PMC1        0.0000
    218 CD12        3.7760  -12.3850   -7.9420 C.3       1 PMC1        0.0000
    219 H12X        4.7090  -12.9870   -7.8720 H         1 PMC1        0.0000
    220 H12Y        3.9310  -11.6130   -8.7280 H         1 PMC1        0.0000
    221 CD13        2.6170  -13.2930   -8.3870 C.3       1 PMC1        0.0000
    222 H13X        2.8600  -13.7060   -9.3930 H         1 PMC1        0.0000
    223 H13Y        1.6920  -12.6830   -8.4890 H         1 PMC1        0.0000
    224 CD14        2.3440  -14.4640   -7.4320 C.3       1 PMC1        0.0000
    225 H14X        2.0060  -14.0740   -6.4460 H         1 PMC1        0.0000
    226 H14Y        3.2910  -15.0260   -7.2690 H         1 PMC1        0.0000
    227 CD15        1.2790  -15.4290   -7.9680 C.3       1 PMC1        0.0000
    228 H15X        1.6050  -15.8040   -8.9660 H         1 PMC1        0.0000
    229 H15Y        0.3280  -14.8690   -8.1150 H         1 PMC1        0.0000
    230 CD16        1.0280  -16.6210   -7.0420 C.3       1 PMC1        0.0000
    231 H16X        0.6740  -16.2710   -6.0480 H         1 PMC1        0.0000
    232 H16Y        1.9630  -17.2040   -6.8960 H         1 PMC1        0.0000
    233 H16Z        0.2570  -17.2950   -7.4730 H         1 PMC1        0.0000
@<TRIPOS>BOND
     1  190  187 1 
     2  188  187 1 
     3  187  189 1 
     4  187  184 1 
     5  186  184 1 
     6  184  185 1 
     7  184  181 1 
     8  182  181 1 
     9  181  183 1 
    10  181  178 1 
    11  174  172 1 
    12  180  178 1 
    13  178  179 1 
    14  178  175 1 
    15  172  173 1 
    16  172  175 1 
    17  172  169 1 
    18  175  176 1 
    19  175  177 1 
    20  104  101 1 
    21  170  169 1 
    22  102  101 1 
    23  171  169 1 
    24  169  166 1 
    25  100   98 1 
    26  101   98 1 
    27  101  103 1 
    28   98   99 1 
    29   98   95 1 
    30  164  163 1 
    31  165  163 1 
    32  166  163 1 
    33  166  168 1 
    34  166  167 1 
    35   97   95 1 
    36  163  160 1 
    37   95   96 1 
    38   95   92 1 
    39  222  221 1 
    40  158  157 1 
    41   93   92 1 
    42  228  227 1 
    43  198  197 1 
    44  160  162 1 
    45  160  157 1 
    46  160  161 1 
    47   92   94 1 
    48   92   89 1 
    49  220  218 1 
    50  159  157 1 
    51  223  221 1 
    52  204  203 1 
    53  157  154 1 
    54  221  218 1 
    55  221  224 1 
    56  196  194 1 
    57  229  227 1 
    58  199  197 1 
    59  210  209 1 
    60   90   89 1 
    61   88   86 1 
    62  227  224 1 
    63  227  230 1 
    64  197  194 1 
    65  197  200 1 
    66  218  219 1 
    67  218  215 1 
    68   89   86 1 
    69   89   91 1 
    70  205  203 1 
    71  136  135 1 
    72  194  195 1 
    73  194  191 1 
    74   71   70 1 
    75  203  200 1 
    76  203  206 1 
    77  233  230 1 
    78   77   76 1 
    79  224  226 1 
    80  224  225 1 
    81   82   81 1 
    82  142  141 1 
    83   59   58 1 
    84   86   87 1 
    85   86   84 1 
    86  211  209 1 
    87  209  206 1 
    88  209  212 1 
    89  230  232 1 
    90  230  231 1 
    91  154  155 1 
    92  154  156 1 
    93  154  151 1 
    94  200  202 1 
    95  200  201 1 
    96  134  132 1 
    97  137  135 1 
    98  216  215 1 
    99  135  132 1 
   100  135  138 1 
   101  215  212 1 
   102  215  217 1 
   103   68   67 1 
   104  143  141 1 
   105  206  208 1 
   106  206  207 1 
   107   70   67 1 
   108   70   72 1 
   109   70   73 1 
   110   69   67 1 
   111  141  138 1 
   112  141  144 1 
   113   81   84 1 
   114   81   83 1 
   115   81   79 1 
   116   76   78 1 
   117   76   73 1 
   118   76   79 1 
   119   75   73 1 
   120  112  111 1 
   121   58  191 1 
   122   58   60 1 
   123   58   56 1 
   124  191  193 1 
   125  191  192 1 
   126  118  117 1 
   127  212  214 1 
   128  212  213 1 
   129  153  151 1 
   130  132  133 1 
   131  132  129 1 
   132  147  144 1 
   133  124  123 1 
   134   67   64 1 
   135  152  151 1 
   136   84   79 1 
   137   84   85 1 
   138  151  148 1 
   139   73   74 1 
   140  138  140 1 
   141  138  139 1 
   142   79   80 1 
   143  144  146 1 
   144  144  145 1 
   145  119  117 1 
   146  125  123 1 
   147  111  113 1 
   148  111  108 1 
   149  111  114 1 
   150  110  108 1 
   151  117  114 1 
   152  117  120 1 
   153   56   57 2 
   154   56   55 1 
   155  123  120 1 
   156  123  126 1 
   157   48   47 2 
   158  130  129 1 
   159  109  108 1 
   160  129  126 1 
   161  129  131 1 
   162   51   49 1 
   163  108  105 1 
   164   64   66 1 
   165   64   65 1 
   166   64   61 1 
   167   45   44 1 
   168  148  149 1 
   169  148   49 1 
   170  148  150 1 
   171  114  116 1 
   172  114  115 1 
   173  120  122 1 
   174  120  121 1 
   175   47   49 1 
   176   47   46 1 
   177   55   52 1 
   178  126  128 1 
   179  126  127 1 
   180   49   50 1 
   181   62   61 1 
   182   63   61 1 
   183   46   44 1 
   184   61   32 1 
   185   44   52 1 
   186   44    9 1 
   187   42   41 1 
   188   52   54 1 
   189   52   53 1 
   190  105  107 1 
   191  105   41 1 
   192  105  106 1 
   193   43   41 1 
   194   41   39 1 
   195   11    9 1 
   196   10    9 1 
   197    9    8 1 
   198   32   33 1 
   199   32   34 1 
   200   32   30 1 
   201   31   30 2 
   202   30   29 1 
   203   18   16 1 
   204   39   38 1 
   205   39   40 2 
   206    8    4 1 
   207   14   15 1 
   208   14   12 1 
   209    3    1 1 
   210   38   35 1 
   211   29   27 1 
   212    6    4 2 
   213   16   12 1 
   214   16   22 1 
   215   16   17 1 
   216    7    1 1 
   217    7    4 1 
   218    1   12 1 
   219    1    2 1 
   220   12   13 1 
   221    4    5 1 
   222   28   27 1 
   223   22   19 1 
   224   35   27 1 
   225   35   36 1 
   226   35   37 1 
   227   27   24 1 
   228   19   21 2 
   229   19   23 1 
   230   19   20 1 
   231   24   23 1 
   232   24   25 1 
   233   24   26 1 
