@<TRIPOS>MOLECULE
C:\Users\Praveer\PycharmProjects\pdb_to_mol2_converter\data\pdb\pmha.pdb
   51    54     0     0     0
SMALL
GASTEIGER

@<TRIPOS>ATOM
      1 C1          0.0820    0.1710   -0.0330 C.ar      1 PMH1        0.0000
      2 C2          1.4790    0.1620   -0.0150 C.ar      1 PMH1        0.0000
      3 H3          2.0070   -0.7730   -0.0920 H         1 PMH1        0.0000
      4 C4          2.1840    1.3660    0.0790 C.ar      1 PMH1        0.0000
      5 CL5         3.9210    1.3530    0.1100 Cl        1 PMH1        0.0000
      6 C6          1.4900    2.5810    0.1520 C.ar      1 PMH1        0.0000
      7 H7          2.0470    3.5030    0.2170 H         1 PMH1        0.0000
      8 C8          0.0880    2.5930    0.1310 C.ar      1 PMH1        0.0000
      9 H9         -0.4480    3.5300    0.1740 H         1 PMH1        0.0000
     10 C10        -0.6140    1.3810    0.0490 C.ar      1 PMH1        0.0000
     11 H11        -1.6930    1.3700    0.0220 H         1 PMH1        0.0000
     12 N12        -0.6300   -1.0450   -0.0680 N.am      1 PMH1        0.0000
     13 H13        -0.9210   -1.4100    0.8060 H         1 PMH1        0.0000
     14 C14        -0.9270   -1.6810   -1.2120 C.2       1 PMH1        0.0000
     15 O15        -0.6000   -1.2590   -2.3150 O.2       1 PMH1        0.0000
     16 C16        -1.6950   -2.9590   -1.0620 C.3       1 PMH1        0.0000
     17 H17        -2.6210   -2.7430   -0.4850 H         1 PMH1        0.0000
     18 H18        -1.0710   -3.6680   -0.4750 H         1 PMH1        0.0000
     19 C19        -2.0610   -3.5850   -2.4400 C.3       1 PMH1        0.0000
     20 H20        -1.1320   -3.7930   -3.0170 H         1 PMH1        0.0000
     21 H21        -2.6890   -2.8750   -3.0210 H         1 PMH1        0.0000
     22 C22        -2.8190   -4.8730   -2.2900 C.2       1 PMH1        0.0000
     23 O23        -3.0810   -5.3050   -1.1670 O.2       1 PMH1        0.0000
     24 N24        -3.1690   -5.4830   -3.4460 N.am      1 PMH1        0.0000
     25 H25        -2.9150   -5.0610   -4.3070 H         1 PMH1        0.0000
     26 N26        -3.8530   -6.6610   -3.3990 N.2       1 PMH1        0.0000
     27 C27        -4.1520   -7.1920   -4.5240 C.2       1 PMH1        0.0000
     28 H28        -3.9020   -6.7720   -5.5070 H         1 PMH1        0.0000
     29 C29        -4.8910   -8.4700   -4.4870 C.ar      1 PMH1        0.0000
     30 C30        -6.3150   -8.4760   -4.4850 C.ar      1 PMH1        0.0000
     31 C31        -7.0120   -9.7170   -4.4480 C.ar      1 PMH1        0.0000
     32 C32        -6.3050  -10.9210   -4.4270 C.ar      1 PMH1        0.0000
     33 H33        -6.8470  -11.8580   -4.3950 H         1 PMH1        0.0000
     34 C34        -4.9100  -10.9310   -4.4480 C.ar      1 PMH1        0.0000
     35 C35        -4.1830   -9.7060   -4.4850 C.ar      1 PMH1        0.0000
     36 C36        -2.7710   -9.7790   -4.5120 C.ar      1 PMH1        0.0000
     37 H37        -2.1660   -8.8830   -4.5290 H         1 PMH1        0.0000
     38 C38        -2.1070  -11.0090   -4.5010 C.ar      1 PMH1        0.0000
     39 H39        -1.0270  -11.0350   -4.5190 H         1 PMH1        0.0000
     40 C40        -2.8360  -12.1990   -4.4560 C.ar      1 PMH1        0.0000
     41 H41        -2.3190  -13.1480   -4.4360 H         1 PMH1        0.0000
     42 C42        -4.2330  -12.1610   -4.4280 C.ar      1 PMH1        0.0000
     43 H43        -4.7850  -13.0910   -4.3860 H         1 PMH1        0.0000
     44 C44        -8.4160   -9.7470   -4.4280 C.ar      1 PMH1        0.0000
     45 H45        -8.9450  -10.6890   -4.3860 H         1 PMH1        0.0000
     46 C46        -9.1480   -8.5560   -4.4560 C.ar      1 PMH1        0.0000
     47 H47       -10.2280   -8.5820   -4.4360 H         1 PMH1        0.0000
     48 C48        -8.4820   -7.3300   -4.5010 C.ar      1 PMH1        0.0000
     49 H49        -9.0440   -6.4070   -4.5190 H         1 PMH1        0.0000
     50 C50        -7.0850   -7.2890   -4.5120 C.ar      1 PMH1        0.0000
     51 H51        -6.6110   -6.3170   -4.5290 H         1 PMH1        0.0000
@<TRIPOS>BOND
     1   28   27 1 
     2   51   50 1 
     3   37   36 1 
     4   27   29 1 
     5   27   26 2 
     6   49   48 1 
     7   39   38 1 
     8   36   38 ar
     9   36   35 ar
    10   50   48 ar
    11   50   30 ar
    12   48   46 ar
    13   38   40 ar
    14   29   35 ar
    15   29   30 ar
    16   35   34 ar
    17   30   31 ar
    18   46   47 1 
    19   46   44 ar
    20   40   41 1 
    21   40   42 ar
    22   34   42 ar
    23   34   32 ar
    24   31   44 ar
    25   31   32 ar
    26   44   45 1 
    27   42   43 1 
    28   32   33 1 
    29   25   24 1 
    30   24   26 1 
    31   24   22 am
    32   21   19 1 
    33   20   19 1 
    34   19   22 1 
    35   19   16 1 
    36   15   14 2 
    37   22   23 2 
    38   14   16 1 
    39   14   12 am
    40   16   17 1 
    41   16   18 1 
    42    3    2 1 
    43   12    1 1 
    44   12   13 1 
    45    1    2 ar
    46    1   10 ar
    47    2    4 ar
    48   11   10 1 
    49   10    8 ar
    50    4    5 1 
    51    4    6 ar
    52    8    6 ar
    53    8    9 1 
    54    6    7 1 
