@<TRIPOS>MOLECULE
C:\Users\Praveer\PycharmProjects\pdb_to_mol2_converter\data\pdb\pmmu.pdb
   23    23     0     0     0
SMALL
GASTEIGER

@<TRIPOS>ATOM
      1 C1          1.4060   -0.0090    0.0060 C.ar      1 PMM1        0.0000
      2 H1          1.9790   -0.9190    0.0040 H         1 PMM1        0.0000
      3 C2          2.1030    1.2060    0.0090 C.ar      1 PMM1        0.0000
      4 H2          3.1870    1.2120    0.0240 H         1 PMM1        0.0000
      5 N3          1.4780    2.3770   -0.0200 N.ar      1 PMM1        0.0000
      6 C4          0.1510    2.4210   -0.0450 C.ar      1 PMM1        0.0000
      7 H4         -0.3180    3.3970   -0.0690 H         1 PMM1        0.0000
      8 C5         -0.6340    1.2590   -0.0490 C.ar      1 PMM1        0.0000
      9 H5         -1.7000    1.3850   -0.0760 H         1 PMM1        0.0000
     10 C6         -0.0060   -0.0060   -0.0080 C.ar      1 PMM1        0.0000
     11 N6         -0.8020   -1.2160   -0.0330 N.am      1 PMM1        0.0000
     12 C60        -2.2470   -1.1230   -0.2680 C.3       1 PMM1        0.0000
     13 H61        -2.4050   -0.7840   -1.3150 H         1 PMM1        0.0000
     14 H62        -2.6640   -0.3900    0.4570 H         1 PMM1        0.0000
     15 H63        -2.7620   -2.0900   -0.0760 H         1 PMM1        0.0000
     16 C7         -0.2180   -2.4620    0.1010 C.2       1 PMM1        0.0000
     17 O7          0.7470   -2.7450    0.8020 O.2       1 PMM1        0.0000
     18 N8         -0.8130   -3.4070   -0.6870 N.am      1 PMM1        0.0000
     19 H8         -1.3640   -3.0850   -1.4470 H         1 PMM1        0.0000
     20 C9         -0.3440   -4.7720   -0.7000 C.3       1 PMM1        0.0000
     21 H91        -0.3850   -5.2080    0.3240 H         1 PMM1        0.0000
     22 H92         0.7100   -4.8200   -1.0550 H         1 PMM1        0.0000
     23 H93        -0.9730   -5.3960   -1.3720 H         1 PMM1        0.0000
@<TRIPOS>BOND
     1   19   18 1 
     2   23   20 1 
     3   13   12 1 
     4   22   20 1 
     5   20   18 1 
     6   20   21 1 
     7   18   16 am
     8   12   15 1 
     9   12   11 1 
    10   12   14 1 
    11    9    8 1 
    12    7    6 1 
    13    8    6 ar
    14    8   10 ar
    15    6    5 ar
    16   11   10 1 
    17   11   16 am
    18    5    3 ar
    19   10    1 ar
    20    2    1 1 
    21    1    3 ar
    22    3    4 1 
    23   16   17 2 
