@<TRIPOS>MOLECULE
C:\Users\Praveer\PycharmProjects\pdb_to_mol2_converter\data\pdb\pmpe.pdb
  122   122     0     0     0
SMALL
GASTEIGER

@<TRIPOS>ATOM
      1 N           1.3010    0.0120   -0.2210 N.4       1 PMP1        0.0000
      2 HN1         0.3180   -0.2790   -0.3650 H         1 PMP1        0.0000
      3 HN2         1.7630   -0.5080    0.5520 H         1 PMP1        0.0000
      4 HN3         1.8650   -0.1660   -1.0930 H         1 PMP1        0.0000
      5 C12         1.4870    1.4980   -0.0780 C.3       1 PMP1        0.0000
      6 H12A        1.2420    1.8120    0.9530 H         1 PMP1        0.0000
      7 H12B        0.7960    1.9950   -0.7920 H         1 PMP1        0.0000
      8 C11         2.9240    1.8170   -0.4960 C.3       1 PMP1        0.0000
      9 H11A        3.6190    1.6090    0.3510 H         1 PMP1        0.0000
     10 H11B        3.0190    2.9030   -0.7250 H         1 PMP1        0.0000
     11 P           4.5360    0.2050   -1.8820 P.3       1 PMP1        0.0000
     12 O13         5.6120    1.1040   -2.3390 O.3       1 PMP1        0.0000
     13 O14         4.1480   -0.9670   -2.6970 O.2       1 PMP1        0.0000
     14 O11         4.8210   -0.2830   -0.4010 O.3       1 PMP1        0.0000
     15 O12         3.2220    1.0570   -1.6650 O.3       1 PMP1        0.0000
     16 C1          6.1810   -0.3160    0.0630 C.3       1 PMP1        0.0000
     17 HA          6.6280    0.7090    0.0930 H         1 PMP1        0.0000
     18 HB          6.8260   -0.9270   -0.6090 H         1 PMP1        0.0000
     19 C2          6.2420   -0.8990    1.5020 C.3       1 PMP1        0.0000
     20 HS          7.2780   -0.7960    1.9040 H         1 PMP1        0.0000
     21 O21         5.8100   -2.2750    1.5000 O.3       1 PMP1        0.0000
     22 C21         6.7240   -3.1190    1.0380 C.2       1 PMP1        0.0000
     23 O22         7.8950   -2.8540    0.8410 O.2       1 PMP1        0.0000
     24 C22         6.0560   -4.4660    0.7410 C.3       1 PMP1        0.0000
     25 H2R         5.8500   -4.5020   -0.3490 H         1 PMP1        0.0000
     26 H2S         5.0820   -4.5010    1.2730 H         1 PMP1        0.0000
     27 C3          5.2930   -0.0840    2.4180 C.3       1 PMP1        0.0000
     28 HX          4.2780   -0.2060    1.9810 H         1 PMP1        0.0000
     29 HY          5.5540    0.9990    2.3500 H         1 PMP1        0.0000
     30 O31         5.2780   -0.5950    3.7690 O.3       1 PMP1        0.0000
     31 C31         6.1370   -0.0230    4.6040 C.2       1 PMP1        0.0000
     32 O32         6.8050    0.9680    4.3660 O.2       1 PMP1        0.0000
     33 C32         6.1990   -0.8530    5.8860 C.3       1 PMP1        0.0000
     34 H2X         6.9720   -1.6310    5.7170 H         1 PMP1        0.0000
     35 H2Y         5.2260   -1.3610    6.0440 H         1 PMP1        0.0000
     36 C23         6.9180   -5.6780    1.1660 C.3       1 PMP1        0.0000
     37 H3R         6.2540   -6.5730    1.1870 H         1 PMP1        0.0000
     38 H3S         7.3110   -5.5310    2.1960 H         1 PMP1        0.0000
     39 C24         8.0630   -5.9890    0.1870 C.3       1 PMP1        0.0000
     40 H4R         8.8480   -5.2040    0.2620 H         1 PMP1        0.0000
     41 H4S         7.6550   -5.9540   -0.8500 H         1 PMP1        0.0000
     42 C25         8.7020   -7.3770    0.3890 C.3       1 PMP1        0.0000
     43 H5R         9.4810   -7.5210   -0.3930 H         1 PMP1        0.0000
     44 H5S         7.9200   -8.1530    0.2290 H         1 PMP1        0.0000
     45 C26         9.3300   -7.5940    1.7760 C.3       1 PMP1        0.0000
     46 H6R         8.5420   -7.4360    2.5460 H         1 PMP1        0.0000
     47 H6S        10.1290   -6.8390    1.9460 H         1 PMP1        0.0000
     48 C27         9.9110   -9.0070    1.9750 C.3       1 PMP1        0.0000
     49 H7R         9.1630   -9.7590    1.6450 H         1 PMP1        0.0000
     50 H7S        10.0900   -9.1680    3.0630 H         1 PMP1        0.0000
     51 C28        11.2410   -9.2420    1.2330 C.3       1 PMP1        0.0000
     52 H8R        11.9890   -8.5380    1.6480 H         1 PMP1        0.0000
     53 H8S        11.1130   -9.0060    0.1540 H         1 PMP1        0.0000
     54 C29        11.6840  -10.7030    1.3660 C.3       1 PMP1        0.0000
     55 H9R        10.9910  -11.4860    1.0210 H         1 PMP1        0.0000
     56 C217       12.4100  -11.0380    2.6690 C.3       1 PMP1        0.0000
     57 H17R       12.1780  -12.0240    3.0480 H         1 PMP1        0.0000
     58 H17S       12.6310  -10.1720    3.2730 H         1 PMP1        0.0000
     59 C210       13.1500  -11.0670    1.3340 C.3       1 PMP1        0.0000
     60 H10R       13.3810  -12.0820    0.9660 H         1 PMP1        0.0000
     61 C211       14.1990   -9.9780    1.1290 C.3       1 PMP1        0.0000
     62 H11R       13.9630   -9.0780    1.7350 H         1 PMP1        0.0000
     63 H11S       14.2320   -9.6790    0.0570 H         1 PMP1        0.0000
     64 C212       15.5830  -10.4960    1.5520 C.3       1 PMP1        0.0000
     65 H12R       15.9150  -11.3120    0.8750 H         1 PMP1        0.0000
     66 H12S       15.4870  -10.9260    2.5750 H         1 PMP1        0.0000
     67 C213       16.6400   -9.3860    1.5870 C.3       1 PMP1        0.0000
     68 H13R       16.1700   -8.4620    1.9960 H         1 PMP1        0.0000
     69 H13S       16.9830   -9.1620    0.5530 H         1 PMP1        0.0000
     70 C214       17.8330   -9.7330    2.4890 C.3       1 PMP1        0.0000
     71 H14R       18.3450  -10.6490    2.1210 H         1 PMP1        0.0000
     72 H14S       17.4330   -9.9610    3.5040 H         1 PMP1        0.0000
     73 C215       18.8380   -8.5790    2.6080 C.3       1 PMP1        0.0000
     74 H15R       18.3070   -7.6200    2.4000 H         1 PMP1        0.0000
     75 H15S       19.6240   -8.6970    1.8290 H         1 PMP1        0.0000
     76 C216       19.4870   -8.4780    3.9920 C.3       1 PMP1        0.0000
     77 H16R       20.0230   -9.4180    4.2430 H         1 PMP1        0.0000
     78 H16S       18.7110   -8.3030    4.7680 H         1 PMP1        0.0000
     79 H16T       20.2100   -7.6340    4.0220 H         1 PMP1        0.0000
     80 C33         6.5740   -0.0350    7.1430 C.3       1 PMP1        0.0000
     81 H3X         5.7190    0.6120    7.4430 H         1 PMP1        0.0000
     82 H3Y         7.4440    0.6280    6.9260 H         1 PMP1        0.0000
     83 C34         6.9570   -0.9590    8.3060 C.3       1 PMP1        0.0000
     84 H4X         7.8700   -1.5290    8.0200 H         1 PMP1        0.0000
     85 H4Y         6.1410   -1.6980    8.4740 H         1 PMP1        0.0000
     86 C35         7.2260   -0.2180    9.6230 C.3       1 PMP1        0.0000
     87 H5X         6.2700    0.2060   10.0030 H         1 PMP1        0.0000
     88 H5Y         7.9260    0.6280    9.4410 H         1 PMP1        0.0000
     89 C36         7.8340   -1.1540   10.6780 C.3       1 PMP1        0.0000
     90 H6X         8.8350   -1.4850   10.3210 H         1 PMP1        0.0000
     91 H6Y         7.1880   -2.0560   10.7620 H         1 PMP1        0.0000
     92 C37         7.9890   -0.5150   12.0660 C.3       1 PMP1        0.0000
     93 H7X         6.9790   -0.3160   12.4880 H         1 PMP1        0.0000
     94 H7Y         8.5070    0.4650   11.9590 H         1 PMP1        0.0000
     95 C38         8.7880   -1.3920   13.0490 C.3       1 PMP1        0.0000
     96 H8X         8.8230   -0.8830   14.0380 H         1 PMP1        0.0000
     97 H8Y         9.8340   -1.4860   12.6800 H         1 PMP1        0.0000
     98 C39         8.2010   -2.8010   13.2310 C.3       1 PMP1        0.0000
     99 H9X         8.1830   -3.3270   12.2520 H         1 PMP1        0.0000
    100 H9Y         7.1490   -2.7090   13.5860 H         1 PMP1        0.0000
    101 C310        8.9840   -3.6800   14.2160 C.3       1 PMP1        0.0000
    102 H10X        8.9830   -3.2010   15.2200 H         1 PMP1        0.0000
    103 H10Y       10.0420   -3.7660   13.8810 H         1 PMP1        0.0000
    104 C311        8.3680   -5.0830   14.3170 C.3       1 PMP1        0.0000
    105 H11X        8.4080   -5.5750   13.3190 H         1 PMP1        0.0000
    106 H11Y        7.2950   -4.9740   14.5950 H         1 PMP1        0.0000
    107 C312        9.0530   -5.9840   15.3520 C.3       1 PMP1        0.0000
    108 H12X        9.0770   -5.4510   16.3290 H         1 PMP1        0.0000
    109 H12Y       10.1040   -6.1800   15.0440 H         1 PMP1        0.0000
    110 C313        8.3090   -7.3150   15.5320 C.3       1 PMP1        0.0000
    111 H13X        8.3490   -7.8950   14.5840 H         1 PMP1        0.0000
    112 H13Y        7.2380   -7.0950   15.7460 H         1 PMP1        0.0000
    113 C314        8.8660   -8.1670   16.6800 C.3       1 PMP1        0.0000
    114 H14X        8.8880   -7.5520   17.6080 H         1 PMP1        0.0000
    115 H14Y        9.9120   -8.4670   16.4470 H         1 PMP1        0.0000
    116 C315        8.0180   -9.4200   16.9390 C.3       1 PMP1        0.0000
    117 H15X        8.0250  -10.0550   16.0240 H         1 PMP1        0.0000
    118 H15Y        6.9630   -9.1040   17.1160 H         1 PMP1        0.0000
    119 C316        8.4970  -10.2470   18.1350 C.3       1 PMP1        0.0000
    120 H16X        8.4780   -9.6340   19.0620 H         1 PMP1        0.0000
    121 H16Y        9.5370  -10.6030   17.9720 H         1 PMP1        0.0000
    122 H16Z        7.8410  -11.1320   18.2870 H         1 PMP1        0.0000
@<TRIPOS>BOND
     1   13   11 2 
     2   12   11 1 
     3   11   15 1 
     4   11   14 1 
     5   15    8 1 
     6    4    1 1 
     7   41   39 1 
     8    7    5 1 
     9   10    8 1 
    10   18   16 1 
    11    8    5 1 
    12    8    9 1 
    13   14   16 1 
    14   43   42 1 
    15    2    1 1 
    16   25   24 1 
    17    1    5 1 
    18    1    3 1 
    19    5    6 1 
    20   63   61 1 
    21   16   17 1 
    22   16   19 1 
    23   53   51 1 
    24   39   40 1 
    25   39   42 1 
    26   39   36 1 
    27   44   42 1 
    28   42   45 1 
    29   69   67 1 
    30   24   22 1 
    31   24   36 1 
    32   24   26 1 
    33   23   22 2 
    34   65   64 1 
    35   60   59 1 
    36   55   54 1 
    37   22   21 1 
    38   61   59 1 
    39   61   64 1 
    40   61   62 1 
    41   36   37 1 
    42   36   38 1 
    43   51   54 1 
    44   51   52 1 
    45   51   48 1 
    46   59   54 1 
    47   59   56 1 
    48   54   56 1 
    49   21   19 1 
    50   19   20 1 
    51   19   27 1 
    52   64   67 1 
    53   64   66 1 
    54   67   68 1 
    55   67   70 1 
    56   49   48 1 
    57   45   47 1 
    58   45   48 1 
    59   45   46 1 
    60   75   73 1 
    61   48   50 1 
    62   28   27 1 
    63   71   70 1 
    64   29   27 1 
    65   74   73 1 
    66   27   30 1 
    67   70   73 1 
    68   70   72 1 
    69   73   76 1 
    70   56   57 1 
    71   56   58 1 
    72   30   31 1 
    73   76   79 1 
    74   76   77 1 
    75   76   78 1 
    76   32   31 2 
    77   31   33 1 
    78   34   33 1 
    79   33   35 1 
    80   33   80 1 
    81   82   80 1 
    82   80   81 1 
    83   80   83 1 
    84   84   83 1 
    85   83   85 1 
    86   83   86 1 
    87   88   86 1 
    88   86   87 1 
    89   86   89 1 
    90   90   89 1 
    91   89   91 1 
    92   89   92 1 
    93   94   92 1 
    94   92   93 1 
    95   92   95 1 
    96   99   98 1 
    97   97   95 1 
    98   95   98 1 
    99   95   96 1 
   100   98  100 1 
   101   98  101 1 
   102  105  104 1 
   103  103  101 1 
   104  101  104 1 
   105  101  102 1 
   106  104  106 1 
   107  104  107 1 
   108  111  110 1 
   109  109  107 1 
   110  107  110 1 
   111  107  108 1 
   112  110  112 1 
   113  110  113 1 
   114  117  116 1 
   115  115  113 1 
   116  113  116 1 
   117  113  114 1 
   118  116  118 1 
   119  116  119 1 
   120  121  119 1 
   121  119  122 1 
   122  119  120 1 
