@<TRIPOS>MOLECULE
C:\Users\Praveer\PycharmProjects\pdb_to_mol2_converter\data\pdb\pmpg.pdb
  124   124     0     0     0
SMALL
GASTEIGER

@<TRIPOS>ATOM
      1 C13         1.6900    2.1840    1.3230 C.3       1 PMP1        0.0000
      2 H13A        2.3020    1.7090    2.1210 H         1 PMP1        0.0000
      3 H13B        1.9750    3.2550    1.2480 H         1 PMP1        0.0000
      4 OC3         0.3100    2.0730    1.6700 O.3       1 PMP1        0.0000
      5 HO3         0.0080    1.2740    1.1890 H         1 PMP1        0.0000
      6 C12         1.9780    1.4730   -0.0220 C.3       1 PMP1        0.0000
      7 H12A        1.4710    2.0420   -0.8370 H         1 PMP1        0.0000
      8 OC2         3.3800    1.4600   -0.2760 O.3       1 PMP1        0.0000
      9 HO2         3.4580    1.1130   -1.1700 H         1 PMP1        0.0000
     10 C11         1.4430    0.0210   -0.0370 C.3       1 PMP1        0.0000
     11 H11A        1.8230   -0.5000    0.8700 H         1 PMP1        0.0000
     12 H11B        1.8670   -0.5240   -0.9160 H         1 PMP1        0.0000
     13 P          -0.7990   -0.2870   -1.3530 P.3       1 PMP1        0.0000
     14 O13        -1.2870   -1.6780   -1.3150 O.3       1 PMP1        0.0000
     15 O14         0.0230    0.1280   -2.5100 O.2       1 PMP1        0.0000
     16 O11        -2.0230    0.7120   -1.2210 O.3       1 PMP1        0.0000
     17 O12         0.0090    0.0160   -0.0140 O.3       1 PMP1        0.0000
     18 C1         -1.8080    2.1220   -1.1400 C.3       1 PMP1        0.0000
     19 HA         -0.8830    2.3850   -0.5810 H         1 PMP1        0.0000
     20 HB         -2.6590    2.5640   -0.5760 H         1 PMP1        0.0000
     21 C2         -1.7770    2.7910   -2.5420 C.3       1 PMP1        0.0000
     22 HS         -0.8290    2.5060   -3.0600 H         1 PMP1        0.0000
     23 O21        -1.8970    4.2190   -2.3700 O.3       1 PMP1        0.0000
     24 C21        -0.7740    4.7990   -1.9680 C.2       1 PMP1        0.0000
     25 O22         0.3280    4.2840   -1.9530 O.2       1 PMP1        0.0000
     26 C22        -1.0290    6.2280   -1.4640 C.3       1 PMP1        0.0000
     27 H2R        -0.4010    6.9160   -2.0630 H         1 PMP1        0.0000
     28 H2S        -0.6510    6.2430   -0.4180 H         1 PMP1        0.0000
     29 C3         -2.9390    2.2720   -3.4330 C.3       1 PMP1        0.0000
     30 HX         -3.9010    2.5470   -2.9450 H         1 PMP1        0.0000
     31 HY         -2.8550    1.1580   -3.4470 H         1 PMP1        0.0000
     32 O31        -2.8690    2.8140   -4.7740 O.3       1 PMP1        0.0000
     33 C31        -3.7010    2.2040   -5.6120 C.2       1 PMP1        0.0000
     34 O32        -4.4930    1.3310   -5.3110 O.2       1 PMP1        0.0000
     35 C32        -3.5660    2.7980   -7.0150 C.3       1 PMP1        0.0000
     36 H2X        -2.6120    3.3560   -7.0920 H         1 PMP1        0.0000
     37 H2Y        -4.4080    3.5100   -7.1330 H         1 PMP1        0.0000
     38 C23        -2.5030    6.7020   -1.4640 C.3       1 PMP1        0.0000
     39 H3R        -2.5910    7.5500   -0.7450 H         1 PMP1        0.0000
     40 H3S        -3.1740    5.8950   -1.0990 H         1 PMP1        0.0000
     41 C24        -2.9640    7.2170   -2.8350 C.3       1 PMP1        0.0000
     42 H4R        -2.9140    6.3920   -3.5780 H         1 PMP1        0.0000
     43 H4S        -2.2540    8.0080   -3.1700 H         1 PMP1        0.0000
     44 C25        -4.3800    7.8210   -2.8110 C.3       1 PMP1        0.0000
     45 H5R        -4.5800    8.3100   -3.7910 H         1 PMP1        0.0000
     46 H5S        -4.4110    8.6130   -2.0290 H         1 PMP1        0.0000
     47 C26        -5.5020    6.8060   -2.5340 C.3       1 PMP1        0.0000
     48 H6R        -6.4600    7.3610   -2.4130 H         1 PMP1        0.0000
     49 H6S        -5.3050    6.2740   -1.5780 H         1 PMP1        0.0000
     50 C27        -5.6820    5.7790   -3.6610 C.3       1 PMP1        0.0000
     51 H7R        -4.7400    5.2010   -3.7990 H         1 PMP1        0.0000
     52 H7S        -5.8850    6.3230   -4.6090 H         1 PMP1        0.0000
     53 C28        -6.8170    4.7810   -3.3820 C.3       1 PMP1        0.0000
     54 H8R        -7.7370    5.3350   -3.1020 H         1 PMP1        0.0000
     55 H8S        -6.5430    4.1420   -2.5130 H         1 PMP1        0.0000
     56 C29        -7.0610    3.8940   -4.6030 C.3       1 PMP1        0.0000
     57 H9R        -6.2770    3.1670   -4.8710 H         1 PMP1        0.0000
     58 C217       -8.4820    3.4230   -4.8780 C.3       1 PMP1        0.0000
     59 H17R       -9.2080    3.8300   -4.1910 H         1 PMP1        0.0000
     60 H17S       -8.5310    2.4420   -5.3280 H         1 PMP1        0.0000
     61 C210       -7.8160    4.4690   -5.7760 C.3       1 PMP1        0.0000
     62 H10R       -7.5100    4.0930   -6.7650 H         1 PMP1        0.0000
     63 C211       -8.5130    5.8310   -5.7010 C.3       1 PMP1        0.0000
     64 H11R       -7.7820    6.6450   -5.8940 H         1 PMP1        0.0000
     65 H11S       -8.9440    5.9880   -4.6920 H         1 PMP1        0.0000
     66 C212       -9.6400    5.8950   -6.7470 C.3       1 PMP1        0.0000
     67 H12R      -10.2620    4.9750   -6.6620 H         1 PMP1        0.0000
     68 H12S       -9.1780    5.8960   -7.7600 H         1 PMP1        0.0000
     69 C213      -10.5730    7.1120   -6.6220 C.3       1 PMP1        0.0000
     70 H13R      -11.2920    7.0710   -7.4700 H         1 PMP1        0.0000
     71 H13S       -9.9850    8.0500   -6.7270 H         1 PMP1        0.0000
     72 C214      -11.3630    7.1500   -5.3020 C.3       1 PMP1        0.0000
     73 H14R      -10.6600    7.3870   -4.4730 H         1 PMP1        0.0000
     74 H14S      -11.7920    6.1420   -5.1020 H         1 PMP1        0.0000
     75 C215      -12.5060    8.1790   -5.2880 C.3       1 PMP1        0.0000
     76 H15R      -12.1100    9.1670   -5.6130 H         1 PMP1        0.0000
     77 H15S      -12.8550    8.2930   -4.2350 H         1 PMP1        0.0000
     78 C216      -13.7100    7.7930   -6.1550 C.3       1 PMP1        0.0000
     79 H16R      -14.1120    6.8060   -5.8410 H         1 PMP1        0.0000
     80 H16S      -13.4230    7.7290   -7.2260 H         1 PMP1        0.0000
     81 H16T      -14.5190    8.5480   -6.0550 H         1 PMP1        0.0000
     82 C33        -3.6360    1.6990   -8.1030 C.3       1 PMP1        0.0000
     83 H3X        -4.4870    1.0110   -7.8940 H         1 PMP1        0.0000
     84 H3Y        -2.7090    1.0830   -8.0560 H         1 PMP1        0.0000
     85 C34        -3.8010    2.2440   -9.5330 C.3       1 PMP1        0.0000
     86 H4X        -3.8110    1.3760  -10.2310 H         1 PMP1        0.0000
     87 H4Y        -2.9160    2.8680   -9.7890 H         1 PMP1        0.0000
     88 C35        -5.0810    3.0680   -9.7740 C.3       1 PMP1        0.0000
     89 H5X        -5.1460    3.3080  -10.8590 H         1 PMP1        0.0000
     90 H5Y        -5.0080    4.0340   -9.2280 H         1 PMP1        0.0000
     91 C36        -6.3710    2.3530   -9.3460 C.3       1 PMP1        0.0000
     92 H6X        -6.3500    2.1880   -8.2450 H         1 PMP1        0.0000
     93 H6Y        -6.4210    1.3550   -9.8350 H         1 PMP1        0.0000
     94 C37        -7.6410    3.1450   -9.6880 C.3       1 PMP1        0.0000
     95 H7X        -7.7380    3.2350  -10.7930 H         1 PMP1        0.0000
     96 H7Y        -7.5480    4.1730   -9.2700 H         1 PMP1        0.0000
     97 C38        -8.9020    2.4890   -9.1110 C.3       1 PMP1        0.0000
     98 H8X        -8.7760    2.3950   -8.0080 H         1 PMP1        0.0000
     99 H8Y        -9.0130    1.4630   -9.5250 H         1 PMP1        0.0000
    100 C39       -10.1800    3.2920   -9.3910 C.3       1 PMP1        0.0000
    101 H9X       -10.3780    3.3010  -10.4860 H         1 PMP1        0.0000
    102 H9Y       -10.0210    4.3440   -9.0720 H         1 PMP1        0.0000
    103 C310      -11.3950    2.7300   -8.6400 C.3       1 PMP1        0.0000
    104 H10X      -11.1150    2.5780   -7.5730 H         1 PMP1        0.0000
    105 H10Y      -11.6550    1.7340   -9.0640 H         1 PMP1        0.0000
    106 C311      -12.6320    3.6420   -8.6830 C.3       1 PMP1        0.0000
    107 H11X      -12.4010    4.5990   -8.1630 H         1 PMP1        0.0000
    108 H11Y      -13.4460    3.1410   -8.1140 H         1 PMP1        0.0000
    109 C312      -13.1220    3.9550  -10.1050 C.3       1 PMP1        0.0000
    110 H12X      -13.2450    3.0050  -10.6710 H         1 PMP1        0.0000
    111 H12Y      -12.3430    4.5580  -10.6250 H         1 PMP1        0.0000
    112 C313      -14.4460    4.7350  -10.1430 C.3       1 PMP1        0.0000
    113 H13X      -14.6180    5.0860  -11.1860 H         1 PMP1        0.0000
    114 H13Y      -14.3650    5.6350   -9.4950 H         1 PMP1        0.0000
    115 C314      -15.6610    3.8980   -9.7140 C.3       1 PMP1        0.0000
    116 H14X      -15.5410    3.5760   -8.6560 H         1 PMP1        0.0000
    117 H14Y      -15.7060    2.9790  -10.3420 H         1 PMP1        0.0000
    118 C315      -16.9860    4.6580   -9.8520 C.3       1 PMP1        0.0000
    119 H15X      -17.0970    4.9950  -10.9080 H         1 PMP1        0.0000
    120 H15Y      -16.9440    5.5700   -9.2130 H         1 PMP1        0.0000
    121 C316      -18.2060    3.8210   -9.4600 C.3       1 PMP1        0.0000
    122 H16X      -18.1270    3.4880   -8.4030 H         1 PMP1        0.0000
    123 H16Y      -18.2810    2.9190  -10.1060 H         1 PMP1        0.0000
    124 H16Z      -19.1400    4.4120   -9.5740 H         1 PMP1        0.0000
@<TRIPOS>BOND
     1  113  112 1 
     2  119  118 1 
     3   89   88 1 
     4   95   94 1 
     5  110  109 1 
     6  111  109 1 
     7  101  100 1 
     8  117  115 1 
     9   86   85 1 
    10  112  109 1 
    11  112  115 1 
    12  112  114 1 
    13  123  121 1 
    14  109  106 1 
    15  118  115 1 
    16  118  121 1 
    17  118  120 1 
    18   93   91 1 
    19   87   85 1 
    20   88   85 1 
    21   88   91 1 
    22   88   90 1 
    23  115  116 1 
    24   94   91 1 
    25   94   96 1 
    26   94   97 1 
    27  124  121 1 
    28   85   82 1 
    29   99   97 1 
    30  121  122 1 
    31  100   97 1 
    32  100  102 1 
    33  100  103 1 
    34   91   92 1 
    35   97   98 1 
    36  105  103 1 
    37  106  103 1 
    38  106  107 1 
    39  106  108 1 
    40  103  104 1 
    41   82   84 1 
    42   82   83 1 
    43   82   35 1 
    44   68   66 1 
    45   70   69 1 
    46   80   78 1 
    47   37   35 1 
    48   36   35 1 
    49   35   33 1 
    50   62   61 1 
    51   66   67 1 
    52   66   69 1 
    53   66   63 1 
    54   71   69 1 
    55   69   72 1 
    56   78   81 1 
    57   78   79 1 
    58   78   75 1 
    59   64   63 1 
    60   61   63 1 
    61   61   58 1 
    62   61   56 1 
    63   63   65 1 
    64   76   75 1 
    65   33   34 2 
    66   33   32 1 
    67   60   58 1 
    68   72   75 1 
    69   72   74 1 
    70   72   73 1 
    71   75   77 1 
    72   58   56 1 
    73   58   59 1 
    74   57   56 1 
    75   32   29 1 
    76   52   50 1 
    77   56   53 1 
    78   51   50 1 
    79   45   44 1 
    80   50   53 1 
    81   50   47 1 
    82   42   41 1 
    83   31   29 1 
    84   29   30 1 
    85   29   21 1 
    86   53   54 1 
    87   53   55 1 
    88   43   41 1 
    89   22   21 1 
    90   41   44 1 
    91   41   38 1 
    92   44   47 1 
    93   44   46 1 
    94   21   23 1 
    95   21   18 1 
    96   47   48 1 
    97   47   49 1 
    98   15   13 2 
    99   23   24 1 
   100   27   26 1 
   101   24   25 2 
   102   24   26 1 
   103   38   26 1 
   104   38   40 1 
   105   38   39 1 
   106   26   28 1 
   107   13   14 1 
   108   13   16 1 
   109   13   17 1 
   110   16   18 1 
   111    9    8 1 
   112   18   19 1 
   113   18   20 1 
   114   12   10 1 
   115    7    6 1 
   116    8    6 1 
   117   10    6 1 
   118   10   17 1 
   119   10   11 1 
   120    6    1 1 
   121    5    4 1 
   122    3    1 1 
   123    1    4 1 
   124    1    2 1 
