@<TRIPOS>MOLECULE
C:\Users\Praveer\PycharmProjects\pdb_to_mol2_converter\data\pdb\pmsm.pdb
   20    20     0     0     0
SMALL
GASTEIGER

@<TRIPOS>ATOM
      1 C3          0.0580   -0.0790   -0.1330 C.3       1 PMS1        0.0000
      2 H31        -0.2770   -1.1280   -0.2590 H         1 PMS1        0.0000
      3 H32        -0.2600    0.5200   -1.0100 H         1 PMS1        0.0000
      4 H33        -0.3790    0.3410    0.7960 H         1 PMS1        0.0000
      5 S1          1.8370   -0.0580   -0.0060 S.O2      1 PMS1        0.0000
      6 O11         2.3380   -0.5160   -1.2690 O.2       1 PMS1        0.0000
      7 O12         2.2070   -0.7310    1.2090 O.2       1 PMS1        0.0000
      8 N2          2.1980    1.5380    0.1030 N.pl3     1 PMS1        0.0000
      9 H21         2.1890    1.9470   -0.8280 H         1 PMS1        0.0000
     10 C4          1.5750    2.3380    1.0730 C.ar      1 PMS1        0.0000
     11 C51         1.7280    2.1160    2.4530 C.ar      1 PMS1        0.0000
     12 H51         2.3620    1.3140    2.8010 H         1 PMS1        0.0000
     13 C52         0.7500    3.3810    0.6280 C.ar      1 PMS1        0.0000
     14 H52         0.6270    3.5670   -0.4300 H         1 PMS1        0.0000
     15 C61         1.0420    2.9170    3.3750 C.ar      1 PMS1        0.0000
     16 H61         1.1540    2.7360    4.4350 H         1 PMS1        0.0000
     17 C62         0.0660    4.1850    1.5480 C.ar      1 PMS1        0.0000
     18 H62        -0.5720    4.9850    1.2000 H         1 PMS1        0.0000
     19 C7          0.2090    3.9500    2.9230 C.ar      1 PMS1        0.0000
     20 H7         -0.3220    4.5660    3.6330 H         1 PMS1        0.0000
@<TRIPOS>BOND
     1    6    5 2 
     2    3    1 1 
     3    9    8 1 
     4   14   13 1 
     5    2    1 1 
     6    1    5 1 
     7    1    4 1 
     8    5    8 1 
     9    5    7 2 
    10    8   10 1 
    11   13   10 ar
    12   13   17 ar
    13   10   11 ar
    14   18   17 1 
    15   17   19 ar
    16   11   12 1 
    17   11   15 ar
    18   19   15 ar
    19   19   20 1 
    20   15   16 1 
