@<TRIPOS>MOLECULE
C:\Users\Praveer\PycharmProjects\pdb_to_mol2_converter\data\pdb\pmst.pdb
   19    19     0     0     0
SMALL
GASTEIGER

@<TRIPOS>ATOM
      1 S1          1.7120    0.0680   -0.0070 S.3       1 PMS1        0.0000
      2 C2          1.7710    1.8450   -0.0010 C.3       1 PMS1        0.0000
      3 H21         2.8330    2.1640   -0.0090 H         1 PMS1        0.0000
      4 H22         1.2690    2.2190    0.9150 H         1 PMS1        0.0000
      5 H23         1.2530    2.2260   -0.9040 H         1 PMS1        0.0000
      6 O11         2.2470   -0.4020    1.2430 O.3       1 PMS1        0.0000
      7 O12         2.2270   -0.3920   -1.2700 O.3       1 PMS1        0.0000
      8 O3          0.1100   -0.0560    0.0060 O.3       1 PMS1        0.0000
      9 CZ         -0.3430   -1.3680    0.0040 C.ar      1 PMS1        0.0000
     10 CE1        -0.6180   -2.0220    1.2160 C.ar      1 PMS1        0.0000
     11 HE1        -0.4090   -1.5150    2.1460 H         1 PMS1        0.0000
     12 CE2        -0.6190   -2.0190   -1.2100 C.ar      1 PMS1        0.0000
     13 HE2        -0.4110   -1.5100   -2.1390 H         1 PMS1        0.0000
     14 CD1        -1.1340   -3.3250    1.2170 C.ar      1 PMS1        0.0000
     15 HD1        -1.3330   -3.8290    2.1520 H         1 PMS1        0.0000
     16 CD2        -1.1350   -3.3220   -1.2130 C.ar      1 PMS1        0.0000
     17 HD2        -1.3350   -3.8240   -2.1500 H         1 PMS1        0.0000
     18 CG         -1.3920   -3.9740    0.0010 C.ar      1 PMS1        0.0000
     19 HG         -1.7880   -4.9800    0.0000 H         1 PMS1        0.0000
@<TRIPOS>BOND
     1   17   16 1 
     2   13   12 1 
     3    7    1 1 
     4   16   12 ar
     5   16   18 ar
     6   12    9 ar
     7    5    2 1 
     8    3    2 1 
     9    1    2 1 
    10    1    8 1 
    11    1    6 1 
    12    2    4 1 
    13   19   18 1 
    14   18   14 ar
    15    9    8 1 
    16    9   10 ar
    17   10   14 ar
    18   10   11 1 
    19   14   15 1 
