@<TRIPOS>MOLECULE
C:\Users\Praveer\PycharmProjects\pdb_to_mol2_converter\data\pdb\pncp.pdb
   24    24     0     0     0
SMALL
GASTEIGER

@<TRIPOS>ATOM
      1 N1          0.9890   -0.0010    0.0080 N.pl3     1 PNC1        0.0000
      2 H1         -0.0050    0.0010    0.0090 H         1 PNC1        0.0000
      3 C2          1.6310    1.1970    0.0100 C.3       1 PNC1        0.0000
      4 N2          0.9450    2.3410    0.0050 N.3       1 PNC1        0.0000
      5 H2         -0.0430    2.2660   -0.0300 H         1 PNC1        0.0000
      6 N3          2.9910    1.1640    0.0180 N.pl3     1 PNC1        0.0000
      7 H3          3.5260    1.9930    0.0070 H         1 PNC1        0.0000
      8 C4          3.7820    0.0070    0.0200 C.2       1 PNC1        0.0000
      9 N4          5.0680    0.1690    0.0220 N.2       1 PNC1        0.0000
     10 H4          5.5350   -0.7120    0.0230 H         1 PNC1        0.0000
     11 C5          3.0540   -1.2250    0.0180 C.2       1 PNC1        0.0000
     12 H5          3.6100   -2.1470    0.0200 H         1 PNC1        0.0000
     13 C6          1.6680   -1.2290    0.0120 C.2       1 PNC1        0.0000
     14 H6          1.0810   -2.1450    0.0100 H         1 PNC1        0.0000
     15 C7          1.5870    3.6600   -0.0410 C.3       1 PNC1        0.0000
     16 H71         2.4630    3.7220    0.6290 H         1 PNC1        0.0000
     17 H72         0.8770    4.4280    0.3190 H         1 PNC1        0.0000
     18 C8          1.9870    3.9920   -1.4890 C.3       1 PNC1        0.0000
     19 H81         1.0850    3.9820   -2.1430 H         1 PNC1        0.0000
     20 H82         2.6970    3.2310   -1.8830 H         1 PNC1        0.0000
     21 C9          2.6470    5.3770   -1.5740 C.3       1 PNC1        0.0000
     22 H91         3.5720    5.4180   -0.9580 H         1 PNC1        0.0000
     23 H92         1.9550    6.1730   -1.2240 H         1 PNC1        0.0000
     24 H93         2.9280    5.6080   -2.6250 H         1 PNC1        0.0000
@<TRIPOS>BOND
     1   24   21 1 
     2   19   18 1 
     3   20   18 1 
     4   21   18 1 
     5   21   23 1 
     6   21   22 1 
     7   18   15 1 
     8   15    4 1 
     9   15   17 1 
    10   15   16 1 
    11    5    4 1 
    12    4    3 1 
    13    7    6 1 
    14    1    2 1 
    15    1    3 1 
    16    1   13 1 
    17    3    6 1 
    18   14   13 1 
    19   13   11 2 
    20    6    8 1 
    21   11    8 1 
    22   11   12 1 
    23    8    9 2 
    24    9   10 1 
