@<TRIPOS>MOLECULE
C:\Users\Praveer\PycharmProjects\pdb_to_mol2_converter\data\pdb\pnh2.pdb
   19    19     0     0     0
SMALL
GASTEIGER

@<TRIPOS>ATOM
      1 N           0.0580   -0.0230   -0.0520 N.4       1 PNH1        0.0000
      2 HN1        -0.3730   -0.4910    0.7270 H         1 PNH1        0.0000
      3 HN2        -0.1830    0.9600    0.0040 H         1 PNH1        0.0000
      4 CD         -0.4300   -0.5740   -1.3850 C.3       1 PNH1        0.0000
      5 CB          1.9420   -0.8690   -1.2680 C.3       1 PNH1        0.0000
      6 CG          0.8240   -0.5700   -2.2620 C.3       1 PNH1        0.0000
      7 CA          1.5610   -0.0800    0.0030 C.3       1 PNH1        0.0000
      8 C           1.9820    1.3800   -0.0150 C.2       1 PNH1        0.0000
      9 O           1.1180    2.2500   -0.1200 O.2       1 PNH1        0.0000
     10 HA          1.8260   -0.5210    0.9540 H         1 PNH1        0.0000
     11 HB1         2.9400   -0.6120   -1.6550 H         1 PNH1        0.0000
     12 HB2         1.9760   -1.9480   -1.0340 H         1 PNH1        0.0000
     13 HG1         0.9600    0.4210   -2.7300 H         1 PNH1        0.0000
     14 HG2         0.7680   -1.3000   -3.0840 H         1 PNH1        0.0000
     15 HD1        -1.2410    0.0570   -1.8130 H         1 PNH1        0.0000
     16 HD2        -0.8010   -1.6150   -1.2490 H         1 PNH1        0.0000
     17 NT          3.3080    1.6510    0.1010 N.am      1 PNH1        0.0000
     18 HT1         3.9930    0.9290    0.1750 H         1 PNH1        0.0000
     19 HT2         3.5820    2.6130    0.0920 H         1 PNH1        0.0000
@<TRIPOS>BOND
     1   14    6 1 
     2   13    6 1 
     3    6    4 1 
     4    6    5 1 
     5   15    4 1 
     6   11    5 1 
     7    4   16 1 
     8    4    1 1 
     9    5   12 1 
    10    5    7 1 
    11    9    8 2 
    12    1    7 1 
    13    1    3 1 
    14    1    2 1 
    15    8    7 1 
    16    8   17 am
    17    7   10 1 
    18   19   17 1 
    19   17   18 1 
