@<TRIPOS>MOLECULE
C:\Users\Praveer\PycharmProjects\pdb_to_mol2_converter\data\pdb\pnpa.pdb
   27    28     0     0     0
SMALL
GASTEIGER

@<TRIPOS>ATOM
      1 N9          1.3860   -0.0020   -0.0080 N.ar      1 PNP1        0.0000
      2 H9          1.9680   -0.8330    0.0170 H         1 PNP1        0.0000
      3 C8          1.8370    1.2990   -0.0100 C.ar      1 PNP1        0.0000
      4 H8          2.8870    1.5670    0.0080 H         1 PNP1        0.0000
      5 C7          0.7300    2.0980   -0.0050 C.ar      1 PNP1        0.0000
      6 C5         -0.3750    1.2950    0.0040 C.ar      1 PNP1        0.0000
      7 H5         -1.4020    1.6290    0.0330 H         1 PNP1        0.0000
      8 C4          0.0120   -0.0070    0.0010 C.ar      1 PNP1        0.0000
      9 H4         -0.5940   -0.9070    0.0170 H         1 PNP1        0.0000
     10 C10         0.7130    3.5840   -0.0040 C.3       1 PNP1        0.0000
     11 H101        1.6800    4.0090    0.3190 H         1 PNP1        0.0000
     12 H102       -0.1160    3.9740    0.6080 H         1 PNP1        0.0000
     13 N11         0.4850    4.0830   -1.4100 N.4       1 PNP1        0.0000
     14 H111       -0.3960    3.7190   -1.7360 H         1 PNP1        0.0000
     15 H112        1.1820    3.6830   -2.0140 H         1 PNP1        0.0000
     16 C12         0.4480    5.5530   -1.6600 C.3       1 PNP1        0.0000
     17 H12         1.3390    5.9820   -1.2170 H         1 PNP1        0.0000
     18 C13         0.2990    5.7670   -3.1610 C.3       1 PNP1        0.0000
     19 H131       -0.1600    4.9020   -3.6730 H         1 PNP1        0.0000
     20 H132        1.2700    5.9350   -3.6510 H         1 PNP1        0.0000
     21 C14        -0.6280    6.9660   -3.2930 C.3       1 PNP1        0.0000
     22 H141       -1.2320    6.9190   -4.2160 H         1 PNP1        0.0000
     23 H142       -0.0550    7.9080   -3.3590 H         1 PNP1        0.0000
     24 C15        -1.4540    6.9050   -2.0270 C.2       1 PNP1        0.0000
     25 H15        -2.3510    7.4990   -1.8670 H         1 PNP1        0.0000
     26 C16        -0.8150    6.1350   -1.0880 C.2       1 PNP1        0.0000
     27 H16        -1.1570    5.9910   -0.0710 H         1 PNP1        0.0000
@<TRIPOS>BOND
     1   22   21 1 
     2   19   18 1 
     3   20   18 1 
     4   23   21 1 
     5   21   18 1 
     6   21   24 1 
     7   18   16 1 
     8   24   25 1 
     9   24   26 2 
    10   15   13 1 
    11   14   13 1 
    12   16   13 1 
    13   16   17 1 
    14   16   26 1 
    15   13   10 1 
    16   26   27 1 
    17    3    1 ar
    18    3    5 ar
    19    3    4 1 
    20    1    8 ar
    21    1    2 1 
    22    5   10 1 
    23    5    6 ar
    24   10   11 1 
    25   10   12 1 
    26    8    6 ar
    27    8    9 1 
    28    6    7 1 
