@<TRIPOS>MOLECULE
C:\Users\Praveer\PycharmProjects\pdb_to_mol2_converter\data\pdb\pnpi.pdb
  133   133     0     0     0
SMALL
GASTEIGER

@<TRIPOS>ATOM
      1 C12         1.6280    0.2060    0.0700 C.3       1 PNP1        0.0000
      2 H2          1.9030   -0.4350   -0.8050 H         1 PNP1        0.0000
      3 O2          2.2900   -0.3240    1.2180 O.3       1 PNP1        0.0000
      4 HO2         1.8480   -1.1640    1.4770 H         1 PNP1        0.0000
      5 C13         2.0830    1.6230   -0.2220 C.3       1 PNP1        0.0000
      6 H3          1.5450    1.9890   -1.1320 H         1 PNP1        0.0000
      7 O3          3.4800    1.6440   -0.5150 O.3       1 PNP1        0.0000
      8 HO3         3.9090    1.1970    0.2230 H         1 PNP1        0.0000
      9 C14         1.7130    2.5330    0.9470 C.3       1 PNP1        0.0000
     10 H4          2.2380    2.1520    1.8580 H         1 PNP1        0.0000
     11 O4          2.1300    3.8840    0.7560 O.3       1 PNP1        0.0000
     12 HO4         1.7760    4.3790    1.5040 H         1 PNP1        0.0000
     13 C15         0.2190    2.4850    1.2280 C.3       1 PNP1        0.0000
     14 H5         -0.2910    2.9280    0.3340 H         1 PNP1        0.0000
     15 O5         -0.1500    3.2900    2.3500 O.3       1 PNP1        0.0000
     16 HO5        -1.0670    3.0410    2.5360 H         1 PNP1        0.0000
     17 C16        -0.3120    1.0670    1.3850 C.3       1 PNP1        0.0000
     18 H6          0.0940    0.6600    2.3410 H         1 PNP1        0.0000
     19 O6         -1.7290    1.0960    1.5090 O.3       1 PNP1        0.0000
     20 HO6        -1.9610    0.2180    1.8660 H         1 PNP1        0.0000
     21 C11         0.1160    0.1780    0.2200 C.3       1 PNP1        0.0000
     22 H1         -0.2890    0.6620   -0.7030 H         1 PNP1        0.0000
     23 P          -0.5350   -2.1460    1.4740 P.3       1 PNP1        0.0000
     24 O13        -1.5060   -1.5160    2.3960 O.3       1 PNP1        0.0000
     25 O14         0.8260   -2.4230    1.9790 O.2       1 PNP1        0.0000
     26 O12        -0.3800   -1.1650    0.1710 O.3       1 PNP1        0.0000
     27 O11        -1.1490   -3.4830    0.8770 O.3       1 PNP1        0.0000
     28 C1         -1.7590   -4.4390    1.7520 C.3       1 PNP1        0.0000
     29 HA         -2.8060   -4.1370    1.9800 H         1 PNP1        0.0000
     30 HB         -1.2010   -4.5310    2.7160 H         1 PNP1        0.0000
     31 C2         -1.7780   -5.8430    1.0900 C.3       1 PNP1        0.0000
     32 HS         -2.5460   -5.8090    0.2790 H         1 PNP1        0.0000
     33 O21        -2.0860   -6.8190    2.1110 O.3       1 PNP1        0.0000
     34 C21        -2.6660   -7.9320    1.6810 C.2       1 PNP1        0.0000
     35 O22        -3.0690   -8.1420    0.5560 O.2       1 PNP1        0.0000
     36 C22        -2.7510   -8.9330    2.8430 C.3       1 PNP1        0.0000
     37 H2R        -3.2380   -8.4220    3.6960 H         1 PNP1        0.0000
     38 H2S        -1.7130   -9.1980    3.1310 H         1 PNP1        0.0000
     39 C3         -0.3930   -6.1550    0.4420 C.3       1 PNP1        0.0000
     40 HX          0.3560   -6.1350    1.2660 H         1 PNP1        0.0000
     41 HY         -0.1170   -5.3340   -0.2600 H         1 PNP1        0.0000
     42 O31        -0.3480   -7.4490   -0.1980 O.3       1 PNP1        0.0000
     43 C31        -0.8870   -7.4730   -1.4170 C.2       1 PNP1        0.0000
     44 O32        -1.2930   -6.5100   -2.0360 O.2       1 PNP1        0.0000
     45 C32        -0.9070   -8.9150   -1.9170 C.3       1 PNP1        0.0000
     46 H2X        -1.4770   -9.5170   -1.1780 H         1 PNP1        0.0000
     47 H2Y         0.1360   -9.2840   -1.9540 H         1 PNP1        0.0000
     48 C23        -3.5350  -10.2170    2.4660 C.3       1 PNP1        0.0000
     49 H3R        -3.0280  -10.7200    1.6120 H         1 PNP1        0.0000
     50 H3S        -4.5590   -9.9380    2.1280 H         1 PNP1        0.0000
     51 C24        -3.6700  -11.2330    3.6170 C.3       1 PNP1        0.0000
     52 H4R        -4.1840  -10.7490    4.4780 H         1 PNP1        0.0000
     53 H4S        -2.6570  -11.5430    3.9570 H         1 PNP1        0.0000
     54 C25        -4.4650  -12.4890    3.2090 C.3       1 PNP1        0.0000
     55 H5R        -3.9570  -12.9720    2.3440 H         1 PNP1        0.0000
     56 H5S        -5.4810  -12.1830    2.8740 H         1 PNP1        0.0000
     57 C26        -4.6080  -13.5260    4.3370 C.3       1 PNP1        0.0000
     58 H6R        -5.1310  -13.0580    5.2010 H         1 PNP1        0.0000
     59 H6S        -3.5950  -13.8330    4.6800 H         1 PNP1        0.0000
     60 C27        -5.3890  -14.7810    3.9030 C.3       1 PNP1        0.0000
     61 H7R        -4.8820  -15.2280    3.0190 H         1 PNP1        0.0000
     62 H7S        -6.4110  -14.4720    3.5870 H         1 PNP1        0.0000
     63 C28        -5.4950  -15.8320    5.0260 C.3       1 PNP1        0.0000
     64 H8R        -5.9560  -15.3360    5.9090 H         1 PNP1        0.0000
     65 H8S        -4.4640  -16.1250    5.3260 H         1 PNP1        0.0000
     66 C29        -6.2700  -17.0580    4.6010 C.2       1 PNP1        0.0000
     67 H91        -5.8380  -17.6010    3.7450 H         1 PNP1        0.0000
     68 C210       -7.4040  -17.5250    5.1620 C.2       1 PNP1        0.0000
     69 H101       -7.8540  -18.4420    4.7510 H         1 PNP1        0.0000
     70 C211       -8.1430  -16.9300    6.3410 C.3       1 PNP1        0.0000
     71 H11R       -7.4070  -16.5220    7.0700 H         1 PNP1        0.0000
     72 H11S       -8.6670  -17.7480    6.8840 H         1 PNP1        0.0000
     73 C212       -9.1250  -15.8410    5.9710 C.2       1 PNP1        0.0000
     74 H121       -9.1240  -15.5070    4.9210 H         1 PNP1        0.0000
     75 C213       -9.9730  -15.2620    6.8400 C.2       1 PNP1        0.0000
     76 H131       -9.9610  -15.5870    7.8920 H         1 PNP1        0.0000
     77 C214      -10.9460  -14.1660    6.4710 C.3       1 PNP1        0.0000
     78 H14R      -11.6500  -14.5510    5.6990 H         1 PNP1        0.0000
     79 H14S      -10.3920  -13.3350    5.9810 H         1 PNP1        0.0000
     80 C215      -11.7330  -13.6200    7.6390 C.2       1 PNP1        0.0000
     81 H151      -11.4880  -14.0250    8.6340 H         1 PNP1        0.0000
     82 C216      -12.6970  -12.6880    7.5350 C.2       1 PNP1        0.0000
     83 H161      -12.9480  -12.2740    6.5460 H         1 PNP1        0.0000
     84 C217      -13.4810  -12.1510    8.7060 C.3       1 PNP1        0.0000
     85 H17R      -12.7930  -11.7010    9.4560 H         1 PNP1        0.0000
     86 H17S      -14.0180  -12.9800    9.2190 H         1 PNP1        0.0000
     87 C218      -14.5150  -11.0890    8.3050 C.3       1 PNP1        0.0000
     88 H18R      -15.2610  -11.5060    7.5960 H         1 PNP1        0.0000
     89 H18S      -14.0250  -10.2130    7.8310 H         1 PNP1        0.0000
     90 H18T      -15.0630  -10.7290    9.2040 H         1 PNP1        0.0000
     91 C33        -1.5710   -9.0370   -3.3050 C.3       1 PNP1        0.0000
     92 H3X        -0.9820   -8.4640   -4.0570 H         1 PNP1        0.0000
     93 H3Y        -2.5940   -8.5940   -3.2710 H         1 PNP1        0.0000
     94 C34        -1.6870  -10.4980   -3.7570 C.3       1 PNP1        0.0000
     95 H4X        -2.3160  -11.0530   -3.0240 H         1 PNP1        0.0000
     96 H4Y        -0.6750  -10.9620   -3.7560 H         1 PNP1        0.0000
     97 C35        -2.3020  -10.6410   -5.1550 C.3       1 PNP1        0.0000
     98 H5X        -1.6680  -10.0940   -5.8890 H         1 PNP1        0.0000
     99 H5Y        -3.3120  -10.1730   -5.1620 H         1 PNP1        0.0000
    100 C36        -2.4200  -12.1090   -5.5830 C.3       1 PNP1        0.0000
    101 H6X        -3.0680  -12.6480   -4.8560 H         1 PNP1        0.0000
    102 H6Y        -1.4100  -12.5770   -5.5480 H         1 PNP1        0.0000
    103 C37        -2.9980  -12.2760   -6.9930 C.3       1 PNP1        0.0000
    104 H7X        -2.3530  -11.7320   -7.7190 H         1 PNP1        0.0000
    105 H7Y        -4.0130  -11.8190   -7.0310 H         1 PNP1        0.0000
    106 C38        -3.0900  -13.7500   -7.4080 C.3       1 PNP1        0.0000
    107 H8X        -3.7430  -14.2920   -6.6880 H         1 PNP1        0.0000
    108 H8Y        -2.0750  -14.2050   -7.3520 H         1 PNP1        0.0000
    109 C39        -3.6410  -13.9360   -8.8260 C.3       1 PNP1        0.0000
    110 H9X        -2.9910  -13.3890   -9.5450 H         1 PNP1        0.0000
    111 H9Y        -4.6600  -13.4910   -8.8850 H         1 PNP1        0.0000
    112 C310       -3.7100  -15.4120   -9.2350 C.3       1 PNP1        0.0000
    113 H10X       -4.3680  -15.9590   -8.5230 H         1 PNP1        0.0000
    114 H10Y       -2.6920  -15.8570   -9.1660 H         1 PNP1        0.0000
    115 C311       -4.2420  -15.6040  -10.6610 C.3       1 PNP1        0.0000
    116 H11X       -3.5860  -15.0530  -11.3720 H         1 PNP1        0.0000
    117 H11Y       -5.2630  -15.1670  -10.7330 H         1 PNP1        0.0000
    118 C312       -4.2960  -17.0810  -11.0700 C.3       1 PNP1        0.0000
    119 H12X       -4.9560  -17.6320  -10.3630 H         1 PNP1        0.0000
    120 H12Y       -3.2750  -17.5180  -10.9910 H         1 PNP1        0.0000
    121 C313       -4.8150  -17.2770  -12.4990 C.3       1 PNP1        0.0000
    122 H13X       -4.1560  -16.7230  -13.2050 H         1 PNP1        0.0000
    123 H13Y       -5.8380  -16.8430  -12.5790 H         1 PNP1        0.0000
    124 C314       -4.8610  -18.7540  -12.9080 C.3       1 PNP1        0.0000
    125 H14X       -5.5220  -19.3080  -12.2030 H         1 PNP1        0.0000
    126 H14Y       -3.8390  -19.1870  -12.8240 H         1 PNP1        0.0000
    127 C315       -5.3740  -18.9550  -14.3390 C.3       1 PNP1        0.0000
    128 H15X       -4.7130  -18.3930  -15.0380 H         1 PNP1        0.0000
    129 H15Y       -6.3950  -18.5150  -14.4190 H         1 PNP1        0.0000
    130 C316       -5.4220  -20.4250  -14.7610 C.3       1 PNP1        0.0000
    131 H16X       -6.0950  -20.9990  -14.0890 H         1 PNP1        0.0000
    132 H16Y       -4.4080  -20.8760  -14.7110 H         1 PNP1        0.0000
    133 H16Z       -5.7990  -20.5200  -15.8020 H         1 PNP1        0.0000
@<TRIPOS>BOND
     1  133  130 1 
     2  128  127 1 
     3  130  132 1 
     4  130  127 1 
     5  130  131 1 
     6  129  127 1 
     7  127  124 1 
     8  122  121 1 
     9  124  126 1 
    10  124  121 1 
    11  124  125 1 
    12  123  121 1 
    13  121  118 1 
    14  116  115 1 
    15  118  120 1 
    16  118  115 1 
    17  118  119 1 
    18  117  115 1 
    19  115  112 1 
    20  110  109 1 
    21  112  114 1 
    22  112  109 1 
    23  112  113 1 
    24  111  109 1 
    25  109  106 1 
    26  104  103 1 
    27  106  108 1 
    28  106  103 1 
    29  106  107 1 
    30  105  103 1 
    31  103  100 1 
    32   98   97 1 
    33  100  102 1 
    34  100   97 1 
    35  100  101 1 
    36   99   97 1 
    37   97   94 1 
    38   92   91 1 
    39   94   96 1 
    40   94   91 1 
    41   94   95 1 
    42   91   93 1 
    43   91   45 1 
    44   44   43 2 
    45   47   45 1 
    46   45   43 1 
    47   45   46 1 
    48   43   42 1 
    49    6    5 1 
    50    2    1 1 
    51   22   21 1 
    52    7    5 1 
    53    7    8 1 
    54   41   39 1 
    55    5    1 1 
    56    5    9 1 
    57   42   39 1 
    58    1   21 1 
    59    1    3 1 
    60   26   21 1 
    61   26   23 1 
    62   21   17 1 
    63   32   31 1 
    64   14   13 1 
    65   39   31 1 
    66   39   40 1 
    67   35   34 2 
    68   11    9 1 
    69   11   12 1 
    70   27   23 1 
    71   27   28 1 
    72    9   13 1 
    73    9   10 1 
    74   31   28 1 
    75   31   33 1 
    76    3    4 1 
    77   13   17 1 
    78   13   15 1 
    79   17   19 1 
    80   17   18 1 
    81   23   25 2 
    82   23   24 1 
    83   19   20 1 
    84   49   48 1 
    85   34   33 1 
    86   34   36 1 
    87   28   29 1 
    88   28   30 1 
    89   50   48 1 
    90   55   54 1 
    91   15   16 1 
    92   48   36 1 
    93   48   51 1 
    94   36   38 1 
    95   36   37 1 
    96   56   54 1 
    97   61   60 1 
    98   54   51 1 
    99   54   57 1 
   100   62   60 1 
   101   51   53 1 
   102   51   52 1 
   103   67   66 1 
   104   60   57 1 
   105   60   63 1 
   106   57   59 1 
   107   57   58 1 
   108   66   63 1 
   109   66   68 2 
   110   69   68 1 
   111   74   73 1 
   112   63   65 1 
   113   63   64 1 
   114   68   70 1 
   115   78   77 1 
   116   73   70 1 
   117   73   75 2 
   118   79   77 1 
   119   70   72 1 
   120   70   71 1 
   121   77   75 1 
   122   77   80 1 
   123   83   82 1 
   124   75   76 1 
   125   82   80 2 
   126   82   84 1 
   127   88   87 1 
   128   80   81 1 
   129   89   87 1 
   130   87   84 1 
   131   87   90 1 
   132   84   86 1 
   133   84   85 1 
