@<TRIPOS>MOLECULE
C:\Users\Praveer\PycharmProjects\pdb_to_mol2_converter\data\pdb\pnpi2b.pdb
  140   140     0     0     0
SMALL
GASTEIGER

@<TRIPOS>ATOM
      1 C12         1.6670   -0.0200    0.3740 C.3       1 PNP1        0.0000
      2 H2          2.1050   -0.7860   -0.3140 H         1 PNP1        0.0000
      3 O2          2.0460   -0.3750    1.7040 O.3       1 PNP1        0.0000
      4 HO2         1.8760   -1.3260    1.7920 H         1 PNP1        0.0000
      5 C13         2.2020    1.3260   -0.0590 C.3       1 PNP1        0.0000
      6 H3          1.7480    1.5280   -1.0660 H         1 PNP1        0.0000
      7 O3          3.6410    1.2580   -0.1520 O.3       1 PNP1        0.0000
      8 P3          4.3850    1.9120   -1.4820 P.3       1 PNP1        0.0000
      9 OP32        3.8890    3.3540   -1.5060 O.3       1 PNP1        0.0000
     10 OP33        5.8860    1.7960   -1.2410 O.3       1 PNP1        0.0000
     11 OP34        3.9000    1.0930   -2.6730 O.2       1 PNP1        0.0000
     12 C14         1.7140    2.4210    0.8780 C.3       1 PNP1        0.0000
     13 H4          2.2330    2.2590    1.8550 H         1 PNP1        0.0000
     14 O4          2.1170    3.7020    0.4050 O.3       1 PNP1        0.0000
     15 HO4         2.8020    3.5320   -0.2990 H         1 PNP1        0.0000
     16 C15         0.1910    2.3830    1.1700 C.3       1 PNP1        0.0000
     17 H5         -0.1980    2.9800    0.3000 H         1 PNP1        0.0000
     18 O5         -0.1240    3.0740    2.3980 O.3       1 PNP1        0.0000
     19 P5         -1.5950    3.7220    2.7320 P.3       1 PNP1        0.0000
     20 OP52       -1.7750    4.7250    1.5060 O.3       1 PNP1        0.0000
     21 HP52       -1.5630    4.2380    0.7040 H         1 PNP1        0.0000
     22 OP53       -2.6750    2.6580    2.6020 O.2       1 PNP1        0.0000
     23 OP54       -1.5490    4.5140    4.0290 O.3       1 PNP1        0.0000
     24 C16        -0.5380    1.0320    0.9980 C.3       1 PNP1        0.0000
     25 H6         -0.5770    0.6140    2.0360 H         1 PNP1        0.0000
     26 O6         -1.8840    1.2310    0.5700 O.3       1 PNP1        0.0000
     27 HO6        -2.3370    1.6000    1.3580 H         1 PNP1        0.0000
     28 C11         0.1600   -0.0340    0.1620 C.3       1 PNP1        0.0000
     29 H1          0.0130    0.3100   -0.8950 H         1 PNP1        0.0000
     30 P          -0.4400   -2.3540    1.4720 P.3       1 PNP1        0.0000
     31 O13        -1.0150   -1.7630    2.6970 O.3       1 PNP1        0.0000
     32 O14         0.8990   -2.9810    1.5960 O.2       1 PNP1        0.0000
     33 O12        -0.4500   -1.3300    0.1970 O.3       1 PNP1        0.0000
     34 O11        -1.4510   -3.4720    0.9810 O.3       1 PNP1        0.0000
     35 C1         -1.8330   -4.4980    1.8950 C.3       1 PNP1        0.0000
     36 HA         -2.8510   -4.2930    2.2950 H         1 PNP1        0.0000
     37 HB         -1.1390   -4.5890    2.7690 H         1 PNP1        0.0000
     38 C2         -1.8230   -5.8450    1.1560 C.3       1 PNP1        0.0000
     39 HS         -2.6340   -5.8060    0.3890 H         1 PNP1        0.0000
     40 O21        -2.0360   -6.8660    2.1490 O.3       1 PNP1        0.0000
     41 C21        -2.6670   -7.9370    1.7250 C.2       1 PNP1        0.0000
     42 O22        -3.1270   -8.1200    0.6100 O.2       1 PNP1        0.0000
     43 C22        -2.7500   -8.9340    2.8770 C.3       1 PNP1        0.0000
     44 H2R        -3.2450   -8.4260    3.7310 H         1 PNP1        0.0000
     45 H2S        -1.7140   -9.2010    3.1730 H         1 PNP1        0.0000
     46 C3         -0.4630   -6.0540    0.4230 C.3       1 PNP1        0.0000
     47 HX          0.3400   -5.9760    1.1900 H         1 PNP1        0.0000
     48 HY         -0.2930   -5.2120   -0.2880 H         1 PNP1        0.0000
     49 O31        -0.3760   -7.3480   -0.2160 O.3       1 PNP1        0.0000
     50 C31        -0.9540   -7.4050   -1.4130 C.2       1 PNP1        0.0000
     51 O32        -1.4150   -6.4700   -2.0340 O.2       1 PNP1        0.0000
     52 C32        -0.9490   -8.8580   -1.8860 C.3       1 PNP1        0.0000
     53 H2X        -1.5300   -9.4480   -1.1460 H         1 PNP1        0.0000
     54 H2Y         0.0990   -9.2190   -1.8930 H         1 PNP1        0.0000
     55 C23        -3.5370  -10.1970    2.4760 C.3       1 PNP1        0.0000
     56 H3R        -3.0290  -10.6960    1.6190 H         1 PNP1        0.0000
     57 H3S        -4.5590   -9.9080    2.1370 H         1 PNP1        0.0000
     58 C24        -3.6670  -11.2000    3.6280 C.3       1 PNP1        0.0000
     59 H4R        -4.1840  -10.7120    4.4840 H         1 PNP1        0.0000
     60 H4S        -2.6510  -11.5000    3.9700 H         1 PNP1        0.0000
     61 C25        -4.4510  -12.4510    3.2110 C.3       1 PNP1        0.0000
     62 H5R        -3.9350  -12.9310    2.3490 H         1 PNP1        0.0000
     63 H5S        -5.4660  -12.1470    2.8690 H         1 PNP1        0.0000
     64 C26        -4.5900  -13.4740    4.3450 C.3       1 PNP1        0.0000
     65 H6R        -5.1150  -12.9990    5.2040 H         1 PNP1        0.0000
     66 H6S        -3.5750  -13.7740    4.6910 H         1 PNP1        0.0000
     67 C27        -5.3650  -14.7260    3.9100 C.3       1 PNP1        0.0000
     68 H7R        -4.8460  -15.1790    3.0360 H         1 PNP1        0.0000
     69 H7S        -6.3830  -14.4160    3.5800 H         1 PNP1        0.0000
     70 C28        -5.4850  -15.7650    5.0400 C.3       1 PNP1        0.0000
     71 H8R        -5.9600  -15.2650    5.9140 H         1 PNP1        0.0000
     72 H8S        -4.4590  -16.0580    5.3570 H         1 PNP1        0.0000
     73 C29        -6.2550  -16.9850    4.5970 C.2       1 PNP1        0.0000
     74 H91        -5.8300  -17.5030    3.7230 H         1 PNP1        0.0000
     75 C210       -7.3890  -17.4640    5.1470 C.2       1 PNP1        0.0000
     76 H101       -7.8430  -18.3690    4.7120 H         1 PNP1        0.0000
     77 C211       -8.1250  -16.8990    6.3410 C.3       1 PNP1        0.0000
     78 H11R       -7.3960  -16.4840    7.0720 H         1 PNP1        0.0000
     79 H11S       -8.6330  -17.7330    6.8750 H         1 PNP1        0.0000
     80 C212       -9.1320  -15.8290    5.9900 C.2       1 PNP1        0.0000
     81 H121       -9.1830  -15.5200    4.9330 H         1 PNP1        0.0000
     82 C213       -9.9490  -15.2410    6.8810 C.2       1 PNP1        0.0000
     83 H131       -9.8890  -15.5450    7.9380 H         1 PNP1        0.0000
     84 C214      -10.9510  -14.1670    6.5240 C.3       1 PNP1        0.0000
     85 H14R      -11.6610  -14.5750    5.7680 H         1 PNP1        0.0000
     86 H14S      -10.4190  -13.3280    6.0200 H         1 PNP1        0.0000
     87 C215      -11.7380  -13.6190    7.6910 C.2       1 PNP1        0.0000
     88 H151      -11.5030  -14.0170    8.6910 H         1 PNP1        0.0000
     89 C216      -12.6980  -12.6850    7.5770 C.2       1 PNP1        0.0000
     90 H161      -12.9420  -12.2790    6.5830 H         1 PNP1        0.0000
     91 C217      -13.4870  -12.1360    8.7370 C.3       1 PNP1        0.0000
     92 H17R      -12.8020  -11.6740    9.4850 H         1 PNP1        0.0000
     93 H17S      -14.0330  -12.9580    9.2550 H         1 PNP1        0.0000
     94 C218      -14.5100  -11.0770    8.2960 C.3       1 PNP1        0.0000
     95 H18R      -15.2460  -11.5050    7.5810 H         1 PNP1        0.0000
     96 H18S      -14.0070  -10.2110    7.8140 H         1 PNP1        0.0000
     97 H18T      -15.0700  -10.7000    9.1780 H         1 PNP1        0.0000
     98 C33        -1.5840   -9.0090   -3.2840 C.3       1 PNP1        0.0000
     99 H3X        -0.9830   -8.4440   -4.0330 H         1 PNP1        0.0000
    100 H3Y        -2.6090   -8.5700   -3.2790 H         1 PNP1        0.0000
    101 C34        -1.6850  -10.4760   -3.7150 C.3       1 PNP1        0.0000
    102 H4X        -2.3140  -11.0260   -2.9790 H         1 PNP1        0.0000
    103 H4Y        -0.6700  -10.9320   -3.7030 H         1 PNP1        0.0000
    104 C35        -2.2940  -10.6360   -5.1140 C.3       1 PNP1        0.0000
    105 H5X        -1.6600  -10.0920   -5.8500 H         1 PNP1        0.0000
    106 H5Y        -3.3050  -10.1700   -5.1280 H         1 PNP1        0.0000
    107 C36        -2.4090  -12.1060   -5.5370 C.3       1 PNP1        0.0000
    108 H6X        -3.0570  -12.6440   -4.8090 H         1 PNP1        0.0000
    109 H6Y        -1.4000  -12.5740   -5.5020 H         1 PNP1        0.0000
    110 C37        -2.9900  -12.2750   -6.9470 C.3       1 PNP1        0.0000
    111 H7X        -2.3450  -11.7320   -7.6740 H         1 PNP1        0.0000
    112 H7Y        -4.0030  -11.8170   -6.9850 H         1 PNP1        0.0000
    113 C38        -3.0850  -13.7490   -7.3640 C.3       1 PNP1        0.0000
    114 H8X        -3.7400  -14.2890   -6.6450 H         1 PNP1        0.0000
    115 H8Y        -2.0720  -14.2070   -7.3080 H         1 PNP1        0.0000
    116 C39        -3.6370  -13.9340   -8.7840 C.3       1 PNP1        0.0000
    117 H9X        -2.9850  -13.3880   -9.5020 H         1 PNP1        0.0000
    118 H9Y        -4.6550  -13.4880   -8.8430 H         1 PNP1        0.0000
    119 C310       -3.7070  -15.4110   -9.1940 C.3       1 PNP1        0.0000
    120 H10X       -4.3670  -15.9560   -8.4820 H         1 PNP1        0.0000
    121 H10Y       -2.6900  -15.8570   -9.1210 H         1 PNP1        0.0000
    122 C311       -4.2370  -15.6080  -10.6210 C.3       1 PNP1        0.0000
    123 H11X       -3.5800  -15.0580  -11.3320 H         1 PNP1        0.0000
    124 H11Y       -5.2580  -15.1710  -10.6960 H         1 PNP1        0.0000
    125 C312       -4.2900  -17.0860  -11.0280 C.3       1 PNP1        0.0000
    126 H12X       -4.9510  -17.6360  -10.3210 H         1 PNP1        0.0000
    127 H12Y       -3.2700  -17.5230  -10.9470 H         1 PNP1        0.0000
    128 C313       -4.8080  -17.2860  -12.4580 C.3       1 PNP1        0.0000
    129 H13X       -4.1480  -16.7340  -13.1650 H         1 PNP1        0.0000
    130 H13Y       -5.8300  -16.8530  -12.5400 H         1 PNP1        0.0000
    131 C314       -4.8540  -18.7650  -12.8660 C.3       1 PNP1        0.0000
    132 H14X       -5.5130  -19.3180  -12.1600 H         1 PNP1        0.0000
    133 H14Y       -3.8320  -19.1980  -12.7830 H         1 PNP1        0.0000
    134 C315       -5.3680  -18.9680  -14.2960 C.3       1 PNP1        0.0000
    135 H15X       -4.7080  -18.4080  -14.9980 H         1 PNP1        0.0000
    136 H15Y       -6.3890  -18.5290  -14.3760 H         1 PNP1        0.0000
    137 C316       -5.4180  -20.4390  -14.7180 C.3       1 PNP1        0.0000
    138 H16X       -6.0910  -21.0130  -14.0450 H         1 PNP1        0.0000
    139 H16Y       -4.4040  -20.8910  -14.6690 H         1 PNP1        0.0000
    140 H16Z       -5.7960  -20.5340  -15.7580 H         1 PNP1        0.0000
@<TRIPOS>BOND
     1  140  137 1 
     2  135  134 1 
     3  137  139 1 
     4  137  134 1 
     5  137  138 1 
     6  136  134 1 
     7  134  131 1 
     8  129  128 1 
     9  131  133 1 
    10  131  128 1 
    11  131  132 1 
    12  130  128 1 
    13  128  125 1 
    14  123  122 1 
    15  125  127 1 
    16  125  122 1 
    17  125  126 1 
    18  124  122 1 
    19  122  119 1 
    20  117  116 1 
    21  119  121 1 
    22  119  116 1 
    23  119  120 1 
    24  118  116 1 
    25  116  113 1 
    26  111  110 1 
    27  113  115 1 
    28  113  110 1 
    29  113  114 1 
    30  112  110 1 
    31  110  107 1 
    32  105  104 1 
    33  107  109 1 
    34  107  104 1 
    35  107  108 1 
    36  106  104 1 
    37  104  101 1 
    38   99   98 1 
    39  101  103 1 
    40  101   98 1 
    41  101  102 1 
    42   98  100 1 
    43   98   52 1 
    44   11    8 2 
    45   51   50 2 
    46   54   52 1 
    47   52   50 1 
    48   52   53 1 
    49    9    8 1 
    50    8   10 1 
    51    8    7 1 
    52   50   49 1 
    53    6    5 1 
    54   29   28 1 
    55    2    1 1 
    56   15   14 1 
    57   48   46 1 
    58   49   46 1 
    59    7    5 1 
    60    5    1 1 
    61    5   12 1 
    62   28   33 1 
    63   28    1 1 
    64   28   24 1 
    65   33   30 1 
    66   17   16 1 
    67    1    3 1 
    68   39   38 1 
    69   14   12 1 
    70   46   38 1 
    71   46   47 1 
    72   26   24 1 
    73   26   27 1 
    74   42   41 2 
    75   21   20 1 
    76   12   16 1 
    77   12   13 1 
    78   34   30 1 
    79   34   35 1 
    80   24   16 1 
    81   24   25 1 
    82   38   35 1 
    83   38   40 1 
    84   16   18 1 
    85   30   32 2 
    86   30   31 1 
    87   20   19 1 
    88   56   55 1 
    89    3    4 1 
    90   41   40 1 
    91   41   43 1 
    92   35   36 1 
    93   35   37 1 
    94   57   55 1 
    95   62   61 1 
    96   18   19 1 
    97   55   43 1 
    98   55   58 1 
    99   22   19 2 
   100   19   23 1 
   101   63   61 1 
   102   43   45 1 
   103   43   44 1 
   104   68   67 1 
   105   61   58 1 
   106   61   64 1 
   107   69   67 1 
   108   58   60 1 
   109   58   59 1 
   110   74   73 1 
   111   67   64 1 
   112   67   70 1 
   113   64   66 1 
   114   64   65 1 
   115   73   70 1 
   116   73   75 2 
   117   76   75 1 
   118   81   80 1 
   119   70   72 1 
   120   70   71 1 
   121   75   77 1 
   122   85   84 1 
   123   80   77 1 
   124   80   82 2 
   125   86   84 1 
   126   77   79 1 
   127   77   78 1 
   128   84   82 1 
   129   84   87 1 
   130   90   89 1 
   131   82   83 1 
   132   89   87 2 
   133   89   91 1 
   134   95   94 1 
   135   87   88 1 
   136   96   94 1 
   137   94   91 1 
   138   94   97 1 
   139   91   93 1 
   140   91   92 1 
