@<TRIPOS>MOLECULE
C:\Users\Praveer\PycharmProjects\pdb_to_mol2_converter\data\pdb\pnpi2c.pdb
  140   140     0     0     0
SMALL
GASTEIGER

@<TRIPOS>ATOM
      1 C12         1.7970    0.0110    0.2960 C.3       1 PNP1        0.0000
      2 H2          2.1330   -0.6580   -0.5340 H         1 PNP1        0.0000
      3 O2          2.2280   -0.5660    1.5280 O.3       1 PNP1        0.0000
      4 HO2         1.9420   -1.4960    1.5300 H         1 PNP1        0.0000
      5 C13         2.4190    1.3910    0.0450 C.3       1 PNP1        0.0000
      6 H3          2.0040    1.7920   -0.9170 H         1 PNP1        0.0000
      7 O3          3.8540    1.2720    0.0100 O.3       1 PNP1        0.0000
      8 P3          4.6250    1.1400   -1.4340 P.3       1 PNP1        0.0000
      9 OP32        4.8310    2.6490   -1.8850 O.3       1 PNP1        0.0000
     10 HP32        4.2110    3.2780   -1.4580 H         1 PNP1        0.0000
     11 OP33        6.0010    0.5120   -1.2210 O.3       1 PNP1        0.0000
     12 OP34        3.7220    0.4260   -2.4340 O.2       1 PNP1        0.0000
     13 C14         1.9760    2.3760    1.1250 C.3       1 PNP1        0.0000
     14 H4          2.4030    1.9630    2.0740 H         1 PNP1        0.0000
     15 O4          2.5250    3.6840    0.9970 O.3       1 PNP1        0.0000
     16 P4          2.2580    4.8960   -0.0750 P.3       1 PNP1        0.0000
     17 OP42        2.0890    6.1260    0.8130 O.3       1 PNP1        0.0000
     18 OP43        0.9900    4.5840   -0.8610 O.3       1 PNP1        0.0000
     19 OP44        3.5010    4.9430   -0.9530 O.2       1 PNP1        0.0000
     20 C15         0.4580    2.3940    1.3360 C.3       1 PNP1        0.0000
     21 H5          0.0200    2.9220    0.4550 H         1 PNP1        0.0000
     22 O5          0.1550    3.1780    2.4870 O.3       1 PNP1        0.0000
     23 HO5         0.5790    4.0180    2.2470 H         1 PNP1        0.0000
     24 C16        -0.2670    1.0360    1.3120 C.3       1 PNP1        0.0000
     25 H6         -0.0960    0.5830    2.3180 H         1 PNP1        0.0000
     26 O6         -1.6740    1.1750    1.1120 O.3       1 PNP1        0.0000
     27 HO6        -1.9600    0.2790    0.9100 H         1 PNP1        0.0000
     28 C11         0.2740    0.0820    0.2540 C.3       1 PNP1        0.0000
     29 H1          0.0540    0.5820   -0.7240 H         1 PNP1        0.0000
     30 P          -0.4680   -2.2880    1.4190 P.3       1 PNP1        0.0000
     31 O13        -1.1550   -1.7230    2.5980 O.3       1 PNP1        0.0000
     32 O14         0.8640   -2.9030    1.6190 O.2       1 PNP1        0.0000
     33 O12        -0.3990   -1.1940    0.1930 O.3       1 PNP1        0.0000
     34 O11        -1.4270   -3.4150    0.8450 O.3       1 PNP1        0.0000
     35 C1         -1.8910   -4.4230    1.7560 C.3       1 PNP1        0.0000
     36 HA         -2.9330   -4.1940    2.0710 H         1 PNP1        0.0000
     37 HB         -1.2700   -4.5050    2.6840 H         1 PNP1        0.0000
     38 C2         -1.8510   -5.8090    1.0790 C.3       1 PNP1        0.0000
     39 HS         -2.6380   -5.8080    0.2870 H         1 PNP1        0.0000
     40 O21        -2.0870   -6.7970    2.1050 O.3       1 PNP1        0.0000
     41 C21        -2.6800   -7.9030    1.6970 C.2       1 PNP1        0.0000
     42 O22        -3.1150   -8.1190    0.5810 O.2       1 PNP1        0.0000
     43 C22        -2.7500   -8.8910    2.8630 C.3       1 PNP1        0.0000
     44 H2R        -3.2450   -8.3830    3.7160 H         1 PNP1        0.0000
     45 H2S        -1.7110   -9.1500    3.1540 H         1 PNP1        0.0000
     46 C3         -0.4670   -6.0440    0.3980 C.3       1 PNP1        0.0000
     47 HX          0.3050   -5.9670    1.1960 H         1 PNP1        0.0000
     48 HY         -0.2580   -5.2140   -0.3180 H         1 PNP1        0.0000
     49 O31        -0.3740   -7.3430   -0.2280 O.3       1 PNP1        0.0000
     50 C31        -0.9480   -7.4100   -1.4270 C.2       1 PNP1        0.0000
     51 O32        -1.4090   -6.4750   -2.0540 O.2       1 PNP1        0.0000
     52 C32        -0.9470   -8.8640   -1.8920 C.3       1 PNP1        0.0000
     53 H2X        -1.5320   -9.4480   -1.1510 H         1 PNP1        0.0000
     54 H2Y         0.0980   -9.2300   -1.8950 H         1 PNP1        0.0000
     55 C23        -3.5300  -10.1680    2.4770 C.3       1 PNP1        0.0000
     56 H3R        -3.0230  -10.6690    1.6200 H         1 PNP1        0.0000
     57 H3S        -4.5550   -9.8890    2.1390 H         1 PNP1        0.0000
     58 C24        -3.6550  -11.1730    3.6310 C.3       1 PNP1        0.0000
     59 H4R        -4.1730  -10.6860    4.4870 H         1 PNP1        0.0000
     60 H4S        -2.6390  -11.4710    3.9710 H         1 PNP1        0.0000
     61 C25        -4.4380  -12.4290    3.2180 C.3       1 PNP1        0.0000
     62 H5R        -3.9210  -12.9100    2.3570 H         1 PNP1        0.0000
     63 H5S        -5.4530  -12.1260    2.8740 H         1 PNP1        0.0000
     64 C26        -4.5830  -13.4580    4.3480 C.3       1 PNP1        0.0000
     65 H6R        -5.1100  -12.9860    5.2080 H         1 PNP1        0.0000
     66 H6S        -3.5710  -13.7640    4.6970 H         1 PNP1        0.0000
     67 C27        -5.3630  -14.7080    3.9080 C.3       1 PNP1        0.0000
     68 H7R        -4.8430  -15.1610    3.0330 H         1 PNP1        0.0000
     69 H7S        -6.3780  -14.3930    3.5750 H         1 PNP1        0.0000
     70 C28        -5.4940  -15.7520    5.0330 C.3       1 PNP1        0.0000
     71 H8R        -5.9780  -15.2510    5.9010 H         1 PNP1        0.0000
     72 H8S        -4.4720  -16.0480    5.3590 H         1 PNP1        0.0000
     73 C29        -6.2620  -16.9740    4.5880 C.2       1 PNP1        0.0000
     74 H91        -5.8410  -17.4910    3.7110 H         1 PNP1        0.0000
     75 C210       -7.3910  -17.4570    5.1460 C.2       1 PNP1        0.0000
     76 H101       -7.8510  -18.3580    4.7120 H         1 PNP1        0.0000
     77 C211       -8.1160  -16.8880    6.3440 C.3       1 PNP1        0.0000
     78 H11R       -7.3800  -16.4670    7.0650 H         1 PNP1        0.0000
     79 H11S       -8.6140  -17.7190    6.8930 H         1 PNP1        0.0000
     80 C212       -9.1270  -15.8240    5.9860 C.2       1 PNP1        0.0000
     81 H121       -9.1770  -15.5230    4.9260 H         1 PNP1        0.0000
     82 C213       -9.9450  -15.2300    6.8730 C.2       1 PNP1        0.0000
     83 H131       -9.8840  -15.5230    7.9330 H         1 PNP1        0.0000
     84 C214      -10.9530  -14.1630    6.5110 C.3       1 PNP1        0.0000
     85 H14R      -11.6630  -14.5770    5.7590 H         1 PNP1        0.0000
     86 H14S      -10.4290  -13.3240    6.0010 H         1 PNP1        0.0000
     87 C215      -11.7360  -13.6200    7.6840 C.2       1 PNP1        0.0000
     88 H151      -11.4950  -14.0270    8.6790 H         1 PNP1        0.0000
     89 C216      -12.6970  -12.6840    7.5810 C.2       1 PNP1        0.0000
     90 H161      -12.9490  -12.2690    6.5920 H         1 PNP1        0.0000
     91 C217      -13.4830  -12.1430    8.7470 C.3       1 PNP1        0.0000
     92 H17R      -12.8010  -11.6830    9.4980 H         1 PNP1        0.0000
     93 H17S      -14.0280  -12.9650    9.2640 H         1 PNP1        0.0000
     94 C218      -14.5010  -11.0860    8.2940 C.3       1 PNP1        0.0000
     95 H18R      -15.2300  -11.5210    7.5760 H         1 PNP1        0.0000
     96 H18S      -13.9900  -10.2260    7.8070 H         1 PNP1        0.0000
     97 H18T      -15.0690  -10.6980    9.1670 H         1 PNP1        0.0000
     98 C33        -1.5810   -9.0160   -3.2900 C.3       1 PNP1        0.0000
     99 H3X        -0.9760   -8.4570   -4.0400 H         1 PNP1        0.0000
    100 H3Y        -2.6040   -8.5710   -3.2860 H         1 PNP1        0.0000
    101 C34        -1.6920  -10.4830   -3.7210 C.3       1 PNP1        0.0000
    102 H4X        -2.3250  -11.0290   -2.9860 H         1 PNP1        0.0000
    103 H4Y        -0.6800  -10.9460   -3.7080 H         1 PNP1        0.0000
    104 C35        -2.2980  -10.6380   -5.1210 C.3       1 PNP1        0.0000
    105 H5X        -1.6630  -10.0940   -5.8550 H         1 PNP1        0.0000
    106 H5Y        -3.3090  -10.1700   -5.1360 H         1 PNP1        0.0000
    107 C36        -2.4150  -12.1070   -5.5450 C.3       1 PNP1        0.0000
    108 H6X        -3.0640  -12.6450   -4.8180 H         1 PNP1        0.0000
    109 H6Y        -1.4060  -12.5750   -5.5090 H         1 PNP1        0.0000
    110 C37        -2.9940  -12.2760   -6.9550 C.3       1 PNP1        0.0000
    111 H7X        -2.3480  -11.7330   -7.6820 H         1 PNP1        0.0000
    112 H7Y        -4.0080  -11.8180   -6.9940 H         1 PNP1        0.0000
    113 C38        -3.0870  -13.7500   -7.3680 C.3       1 PNP1        0.0000
    114 H8X        -3.7420  -14.2900   -6.6480 H         1 PNP1        0.0000
    115 H8Y        -2.0730  -14.2070   -7.3110 H         1 PNP1        0.0000
    116 C39        -3.6380  -13.9350   -8.7870 C.3       1 PNP1        0.0000
    117 H9X        -2.9860  -13.3900   -9.5050 H         1 PNP1        0.0000
    118 H9Y        -4.6560  -13.4900   -8.8470 H         1 PNP1        0.0000
    119 C310       -3.7070  -15.4120   -9.1930 C.3       1 PNP1        0.0000
    120 H10X       -4.3670  -15.9570   -8.4810 H         1 PNP1        0.0000
    121 H10Y       -2.6890  -15.8580   -9.1200 H         1 PNP1        0.0000
    122 C311       -4.2360  -15.6070  -10.6190 C.3       1 PNP1        0.0000
    123 H11X       -3.5790  -15.0570  -11.3300 H         1 PNP1        0.0000
    124 H11Y       -5.2570  -15.1700  -10.6940 H         1 PNP1        0.0000
    125 C312       -4.2890  -17.0850  -11.0250 C.3       1 PNP1        0.0000
    126 H12X       -4.9490  -17.6340  -10.3170 H         1 PNP1        0.0000
    127 H12Y       -3.2680  -17.5220  -10.9430 H         1 PNP1        0.0000
    128 C313       -4.8060  -17.2830  -12.4540 C.3       1 PNP1        0.0000
    129 H13X       -4.1470  -16.7310  -13.1600 H         1 PNP1        0.0000
    130 H13Y       -5.8280  -16.8500  -12.5350 H         1 PNP1        0.0000
    131 C314       -4.8520  -18.7610  -12.8610 C.3       1 PNP1        0.0000
    132 H14X       -5.5120  -19.3140  -12.1550 H         1 PNP1        0.0000
    133 H14Y       -3.8300  -19.1940  -12.7780 H         1 PNP1        0.0000
    134 C315       -5.3660  -18.9640  -14.2910 C.3       1 PNP1        0.0000
    135 H15X       -4.7060  -18.4030  -14.9920 H         1 PNP1        0.0000
    136 H15Y       -6.3870  -18.5240  -14.3700 H         1 PNP1        0.0000
    137 C316       -5.4160  -20.4340  -14.7130 C.3       1 PNP1        0.0000
    138 H16X       -6.0890  -21.0080  -14.0390 H         1 PNP1        0.0000
    139 H16Y       -4.4020  -20.8860  -14.6640 H         1 PNP1        0.0000
    140 H16Z       -5.7950  -20.5300  -15.7530 H         1 PNP1        0.0000
@<TRIPOS>BOND
     1  140  137 1 
     2  135  134 1 
     3  137  139 1 
     4  137  134 1 
     5  137  138 1 
     6  136  134 1 
     7  134  131 1 
     8  129  128 1 
     9  131  133 1 
    10  131  128 1 
    11  131  132 1 
    12  130  128 1 
    13  128  125 1 
    14  123  122 1 
    15  125  127 1 
    16  125  122 1 
    17  125  126 1 
    18  124  122 1 
    19  122  119 1 
    20  117  116 1 
    21  119  121 1 
    22  119  116 1 
    23  119  120 1 
    24  118  116 1 
    25  116  113 1 
    26  111  110 1 
    27  113  115 1 
    28  113  110 1 
    29  113  114 1 
    30  112  110 1 
    31  110  107 1 
    32  105  104 1 
    33  107  109 1 
    34  107  104 1 
    35  107  108 1 
    36  106  104 1 
    37  104  101 1 
    38   99   98 1 
    39  101  103 1 
    40  101   98 1 
    41  101  102 1 
    42   98  100 1 
    43   98   52 1 
    44   12    8 2 
    45   51   50 2 
    46   54   52 1 
    47   52   50 1 
    48   52   53 1 
    49    9   10 1 
    50    9    8 1 
    51    8   11 1 
    52    8    7 1 
    53   50   49 1 
    54   19   16 2 
    55    6    5 1 
    56   18   16 1 
    57   29   28 1 
    58    2    1 1 
    59   48   46 1 
    60   49   46 1 
    61   16   17 1 
    62   16   15 1 
    63    7    5 1 
    64    5    1 1 
    65    5   13 1 
    66   33   28 1 
    67   33   30 1 
    68   28    1 1 
    69   28   24 1 
    70   39   38 1 
    71    1    3 1 
    72   46   38 1 
    73   46   47 1 
    74   21   20 1 
    75   42   41 2 
    76   34   30 1 
    77   34   35 1 
    78   27   26 1 
    79   15   13 1 
    80   38   35 1 
    81   38   40 1 
    82   26   24 1 
    83   13   20 1 
    84   13   14 1 
    85   24   20 1 
    86   24   25 1 
    87   20   22 1 
    88   30   32 2 
    89   30   31 1 
    90    3    4 1 
    91   56   55 1 
    92   41   40 1 
    93   41   43 1 
    94   35   36 1 
    95   35   37 1 
    96   57   55 1 
    97   23   22 1 
    98   62   61 1 
    99   55   43 1 
   100   55   58 1 
   101   43   45 1 
   102   43   44 1 
   103   63   61 1 
   104   68   67 1 
   105   61   58 1 
   106   61   64 1 
   107   69   67 1 
   108   58   60 1 
   109   58   59 1 
   110   74   73 1 
   111   67   64 1 
   112   67   70 1 
   113   64   66 1 
   114   64   65 1 
   115   73   70 1 
   116   73   75 2 
   117   76   75 1 
   118   81   80 1 
   119   70   72 1 
   120   70   71 1 
   121   75   77 1 
   122   85   84 1 
   123   80   77 1 
   124   80   82 2 
   125   86   84 1 
   126   77   79 1 
   127   77   78 1 
   128   84   82 1 
   129   84   87 1 
   130   90   89 1 
   131   82   83 1 
   132   95   94 1 
   133   89   87 2 
   134   89   91 1 
   135   87   88 1 
   136   96   94 1 
   137   94   91 1 
   138   94   97 1 
   139   91   93 1 
   140   91   92 1 
