@<TRIPOS>MOLECULE
C:\Users\Praveer\PycharmProjects\pdb_to_mol2_converter\data\pdb\pnpi35.pdb
  143   143     0     0     0
SMALL
GASTEIGER

@<TRIPOS>ATOM
      1 C12         1.8280    0.1180    0.2950 C.3       1 PNP1        0.0000
      2 H2          2.2510   -0.5580   -0.4900 H         1 PNP1        0.0000
      3 O2          2.3010   -0.3540    1.5460 O.3       1 PNP1        0.0000
      4 HO2         3.2630   -0.4640    1.3510 H         1 PNP1        0.0000
      5 C13         2.3670    1.5290    0.0670 C.3       1 PNP1        0.0000
      6 H3          2.0800    1.7810   -0.9820 H         1 PNP1        0.0000
      7 O3          3.8100    1.6140    0.1290 O.3       1 PNP1        0.0000
      8 P3          4.8950    0.4840   -0.4190 P.3       1 PNP1        0.0000
      9 OP32        6.2760    1.1410   -0.3840 O.3       1 PNP1        0.0000
     10 OP33        4.4800    0.0770   -1.8300 O.2       1 PNP1        0.0000
     11 OP34        4.7980   -0.6750    0.5740 O.3       1 PNP1        0.0000
     12 C14         1.6580    2.6200    0.9260 C.3       1 PNP1        0.0000
     13 H4          2.1150    2.4400    1.9330 H         1 PNP1        0.0000
     14 O4          2.1120    3.9200    0.5380 O.3       1 PNP1        0.0000
     15 P4          1.4430    5.3070   -0.0480 P.3       1 PNP1        0.0000
     16 OP42        2.6010    6.2940   -0.2210 O.3       1 PNP1        0.0000
     17 OP43        0.4460    5.8260    0.9850 O.3       1 PNP1        0.0000
     18 OP44        0.7680    4.9750   -1.3770 O.2       1 PNP1        0.0000
     19 C15         0.1260    2.4360    1.1930 C.3       1 PNP1        0.0000
     20 H5         -0.3310    3.0640    0.3810 H         1 PNP1        0.0000
     21 O5         -0.2410    2.9640    2.4870 O.3       1 PNP1        0.0000
     22 P5         -1.7090    3.6380    2.7980 P.3       1 PNP1        0.0000
     23 OP52       -1.8300    4.9090    1.8620 O.3       1 PNP1        0.0000
     24 HP52       -0.9360    5.2120    1.5620 H         1 PNP1        0.0000
     25 OP53       -2.8180    2.6720    2.3840 O.2       1 PNP1        0.0000
     26 OP54       -1.7670    4.0980    4.2540 O.3       1 PNP1        0.0000
     27 C16        -0.4890    1.0250    0.9650 C.3       1 PNP1        0.0000
     28 H6         -0.5160    0.5820    1.9930 H         1 PNP1        0.0000
     29 O6         -1.8510    1.1030    0.5270 O.3       1 PNP1        0.0000
     30 HO6        -2.2970    1.6640    1.1990 H         1 PNP1        0.0000
     31 C11         0.3110   -0.0010    0.1660 C.3       1 PNP1        0.0000
     32 H1          0.1560    0.3450   -0.8890 H         1 PNP1        0.0000
     33 P          -0.2090   -2.4220    1.4370 P.3       1 PNP1        0.0000
     34 O13        -0.5180   -1.8370    2.7630 O.3       1 PNP1        0.0000
     35 O14         0.9070   -3.3980    1.3540 O.2       1 PNP1        0.0000
     36 O12        -0.1960   -1.3510    0.1840 O.3       1 PNP1        0.0000
     37 O11        -1.4930   -3.3120    1.0770 O.3       1 PNP1        0.0000
     38 C1         -1.8620   -4.3680    1.9770 C.3       1 PNP1        0.0000
     39 HA         -2.8810   -4.1720    2.3730 H         1 PNP1        0.0000
     40 HB         -1.1850   -4.4490    2.8640 H         1 PNP1        0.0000
     41 C2         -1.8600   -5.7420    1.2650 C.3       1 PNP1        0.0000
     42 HS         -2.6660   -5.7160    0.4920 H         1 PNP1        0.0000
     43 O21        -2.0990   -6.7370    2.2830 O.3       1 PNP1        0.0000
     44 C21        -2.7140   -7.8290    1.8860 C.2       1 PNP1        0.0000
     45 O22        -3.1820   -8.0420    0.7820 O.2       1 PNP1        0.0000
     46 C22        -2.7700   -8.8110    3.0580 C.3       1 PNP1        0.0000
     47 H2R        -3.2670   -8.2990    3.9070 H         1 PNP1        0.0000
     48 H2S        -1.7290   -9.0570    3.3500 H         1 PNP1        0.0000
     49 C3         -0.5060   -6.0120    0.5380 C.3       1 PNP1        0.0000
     50 HX          0.2990   -5.9260    1.3000 H         1 PNP1        0.0000
     51 HY         -0.3120   -5.1980   -0.2010 H         1 PNP1        0.0000
     52 O31        -0.4450   -7.3320   -0.0510 O.3       1 PNP1        0.0000
     53 C31        -1.0140   -7.4300   -1.2460 C.2       1 PNP1        0.0000
     54 O32        -1.4880   -6.5190   -1.8970 O.2       1 PNP1        0.0000
     55 C32        -0.9940   -8.8960   -1.6800 C.3       1 PNP1        0.0000
     56 H2X        -1.5900   -9.4680   -0.9380 H         1 PNP1        0.0000
     57 H2Y         0.0540   -9.2530   -1.6570 H         1 PNP1        0.0000
     58 C23        -3.5400  -10.0970    2.6880 C.3       1 PNP1        0.0000
     59 H3R        -3.0280  -10.6080    1.8400 H         1 PNP1        0.0000
     60 H3S        -4.5670   -9.8320    2.3460 H         1 PNP1        0.0000
     61 C24        -3.6550  -11.0770    3.8620 C.3       1 PNP1        0.0000
     62 H4R        -4.1720  -10.5740    4.7100 H         1 PNP1        0.0000
     63 H4S        -2.6360  -11.3620    4.2050 H         1 PNP1        0.0000
     64 C25        -4.4330  -12.3430    3.4760 C.3       1 PNP1        0.0000
     65 H5R        -3.9130  -12.8430    2.6280 H         1 PNP1        0.0000
     66 H5S        -5.4480  -12.0510    3.1240 H         1 PNP1        0.0000
     67 C26        -4.5760  -13.3410    4.6320 C.3       1 PNP1        0.0000
     68 H6R        -5.1010  -12.8470    5.4800 H         1 PNP1        0.0000
     69 H6S        -3.5640  -13.6380    4.9870 H         1 PNP1        0.0000
     70 C27        -5.3560  -14.5990    4.2220 C.3       1 PNP1        0.0000
     71 H7R        -4.8340  -15.0750    3.3610 H         1 PNP1        0.0000
     72 H7S        -6.3700  -14.2910    3.8780 H         1 PNP1        0.0000
     73 C28        -5.4900  -15.6100    5.3740 C.3       1 PNP1        0.0000
     74 H8R        -5.9800  -15.0870    6.2250 H         1 PNP1        0.0000
     75 H8S        -4.4700  -15.8950    5.7150 H         1 PNP1        0.0000
     76 C29        -6.2540  -16.8410    4.9480 C.2       1 PNP1        0.0000
     77 H91        -5.8300  -17.3690    4.0800 H         1 PNP1        0.0000
     78 C210       -7.3830  -17.3150    5.5110 C.2       1 PNP1        0.0000
     79 H101       -7.8430  -18.2230    5.0880 H         1 PNP1        0.0000
     80 C211       -8.1090  -16.7310    6.7000 C.3       1 PNP1        0.0000
     81 H11R       -7.3760  -16.2870    7.4120 H         1 PNP1        0.0000
     82 H11S       -8.6030  -17.5550    7.2620 H         1 PNP1        0.0000
     83 C212       -9.1290  -15.6820    6.3270 C.2       1 PNP1        0.0000
     84 H121       -9.1960  -15.4070    5.2620 H         1 PNP1        0.0000
     85 C213       -9.9370  -15.0710    7.2100 C.2       1 PNP1        0.0000
     86 H131       -9.8580  -15.3390    8.2760 H         1 PNP1        0.0000
     87 C214      -10.9540  -14.0210    6.8300 C.3       1 PNP1        0.0000
     88 H14R      -11.6660  -14.4590    6.0930 H         1 PNP1        0.0000
     89 H14S      -10.4360  -13.1900    6.2990 H         1 PNP1        0.0000
     90 C215      -11.7350  -13.4540    7.9910 C.2       1 PNP1        0.0000
     91 H151      -11.4990  -13.8360    8.9970 H         1 PNP1        0.0000
     92 C216      -12.6930  -12.5220    7.8610 C.2       1 PNP1        0.0000
     93 H161      -12.9390  -12.1340    6.8610 H         1 PNP1        0.0000
     94 C217      -13.4810  -11.9500    9.0100 C.3       1 PNP1        0.0000
     95 H17R      -12.7990  -11.4700    9.7490 H         1 PNP1        0.0000
     96 H17S      -14.0290  -12.7600    9.5450 H         1 PNP1        0.0000
     97 C218      -14.4960  -10.9050    8.5240 C.3       1 PNP1        0.0000
     98 H18R      -15.2270  -11.3540    7.8170 H         1 PNP1        0.0000
     99 H18S      -13.9870  -10.0560    8.0200 H         1 PNP1        0.0000
    100 H18T      -15.0650  -10.4960    9.3860 H         1 PNP1        0.0000
    101 C33        -1.5990   -9.0850   -3.0880 C.3       1 PNP1        0.0000
    102 H3X        -0.9830   -8.5390   -3.8380 H         1 PNP1        0.0000
    103 H3Y        -2.6240   -8.6460   -3.1160 H         1 PNP1        0.0000
    104 C34        -1.6970  -10.5610   -3.4880 C.3       1 PNP1        0.0000
    105 H4X        -2.3290  -11.0980   -2.7460 H         1 PNP1        0.0000
    106 H4Y        -0.6820  -11.0180   -3.4620 H         1 PNP1        0.0000
    107 C35        -2.2980  -10.7510   -4.8870 C.3       1 PNP1        0.0000
    108 H5X        -1.6610  -10.2230   -5.6320 H         1 PNP1        0.0000
    109 H5Y        -3.3090  -10.2850   -4.9160 H         1 PNP1        0.0000
    110 C36        -2.4130  -12.2290   -5.2780 C.3       1 PNP1        0.0000
    111 H6X        -3.0610  -12.7520   -4.5400 H         1 PNP1        0.0000
    112 H6Y        -1.4040  -12.6960   -5.2330 H         1 PNP1        0.0000
    113 C37        -2.9930  -12.4270   -6.6840 C.3       1 PNP1        0.0000
    114 H7X        -2.3480  -11.9010   -7.4230 H         1 PNP1        0.0000
    115 H7Y        -4.0070  -11.9700   -6.7320 H         1 PNP1        0.0000
    116 C38        -3.0880  -13.9090   -7.0660 C.3       1 PNP1        0.0000
    117 H8X        -3.7430  -14.4340   -6.3340 H         1 PNP1        0.0000
    118 H8Y        -2.0740  -14.3660   -6.9990 H         1 PNP1        0.0000
    119 C39        -3.6390  -14.1250   -8.4800 C.3       1 PNP1        0.0000
    120 H9X        -2.9860  -13.5950   -9.2100 H         1 PNP1        0.0000
    121 H9Y        -4.6570  -13.6800   -8.5500 H         1 PNP1        0.0000
    122 C310       -3.7080  -15.6100   -8.8540 C.3       1 PNP1        0.0000
    123 H10X       -4.3680  -16.1390   -8.1300 H         1 PNP1        0.0000
    124 H10Y       -2.6910  -16.0540   -8.7700 H         1 PNP1        0.0000
    125 C311       -4.2360  -15.8360  -10.2760 C.3       1 PNP1        0.0000
    126 H11X       -3.5790  -15.3020  -10.9980 H         1 PNP1        0.0000
    127 H11Y       -5.2570  -15.4000  -10.3610 H         1 PNP1        0.0000
    128 C312       -4.2890  -17.3220  -10.6490 C.3       1 PNP1        0.0000
    129 H12X       -4.9500  -17.8560   -9.9300 H         1 PNP1        0.0000
    130 H12Y       -3.2680  -17.7570  -10.5570 H         1 PNP1        0.0000
    131 C313       -4.8060  -17.5530  -12.0740 C.3       1 PNP1        0.0000
    132 H13X       -4.1460  -17.0150  -12.7920 H         1 PNP1        0.0000
    133 H13Y       -5.8280  -17.1210  -12.1660 H         1 PNP1        0.0000
    134 C314       -4.8510  -19.0390  -12.4490 C.3       1 PNP1        0.0000
    135 H14X       -5.5110  -19.5760  -11.7310 H         1 PNP1        0.0000
    136 H14Y       -3.8290  -19.4700  -12.3560 H         1 PNP1        0.0000
    137 C315       -5.3660  -19.2730  -13.8740 C.3       1 PNP1        0.0000
    138 H15X       -4.7070  -18.7280  -14.5870 H         1 PNP1        0.0000
    139 H15Y       -6.3870  -18.8350  -13.9630 H         1 PNP1        0.0000
    140 C316       -5.4160  -20.7520  -14.2630 C.3       1 PNP1        0.0000
    141 H16X       -6.0880  -21.3110  -13.5770 H         1 PNP1        0.0000
    142 H16Y       -4.4020  -21.2030  -14.2050 H         1 PNP1        0.0000
    143 H16Z       -5.7950  -20.8710  -15.3010 H         1 PNP1        0.0000
@<TRIPOS>BOND
     1  143  140 1 
     2  138  137 1 
     3  140  142 1 
     4  140  137 1 
     5  140  141 1 
     6  139  137 1 
     7  137  134 1 
     8  132  131 1 
     9  134  136 1 
    10  134  131 1 
    11  134  135 1 
    12  133  131 1 
    13  131  128 1 
    14  126  125 1 
    15  128  130 1 
    16  128  125 1 
    17  128  129 1 
    18  127  125 1 
    19  125  122 1 
    20  120  119 1 
    21  122  124 1 
    22  122  119 1 
    23  122  123 1 
    24  121  119 1 
    25  119  116 1 
    26  114  113 1 
    27  116  118 1 
    28  116  113 1 
    29  116  117 1 
    30  115  113 1 
    31  113  110 1 
    32  108  107 1 
    33  110  112 1 
    34  110  107 1 
    35  110  111 1 
    36  109  107 1 
    37  107  104 1 
    38  102  101 1 
    39  104  106 1 
    40  104  101 1 
    41  104  105 1 
    42  103  101 1 
    43  101   55 1 
    44   54   53 2 
    45   10    8 2 
    46   55   57 1 
    47   55   53 1 
    48   55   56 1 
    49   18   15 2 
    50   53   52 1 
    51    6    5 1 
    52   32   31 1 
    53    2    1 1 
    54    8    9 1 
    55    8    7 1 
    56    8   11 1 
    57   16   15 1 
    58   51   49 1 
    59   52   49 1 
    60   15   14 1 
    61   15   17 1 
    62    5    7 1 
    63    5    1 1 
    64    5   12 1 
    65   31   36 1 
    66   31    1 1 
    67   31   27 1 
    68   36   33 1 
    69    1    3 1 
    70   20   19 1 
    71   42   41 1 
    72   29   27 1 
    73   29   30 1 
    74   14   12 1 
    75   49   41 1 
    76   49   50 1 
    77   45   44 2 
    78   12   19 1 
    79   12   13 1 
    80   27   19 1 
    81   27   28 1 
    82   37   33 1 
    83   37   38 1 
    84   19   21 1 
    85   41   38 1 
    86   41   43 1 
    87    4    3 1 
    88   35   33 2 
    89   33   34 1 
    90   24   23 1 
    91   59   58 1 
    92   23   22 1 
    93   44   43 1 
    94   44   46 1 
    95   38   39 1 
    96   38   40 1 
    97   60   58 1 
    98   25   22 2 
    99   21   22 1 
   100   65   64 1 
   101   58   46 1 
   102   58   61 1 
   103   22   26 1 
   104   46   48 1 
   105   46   47 1 
   106   66   64 1 
   107   71   70 1 
   108   64   61 1 
   109   64   67 1 
   110   61   63 1 
   111   61   62 1 
   112   72   70 1 
   113   77   76 1 
   114   70   67 1 
   115   70   73 1 
   116   67   69 1 
   117   67   68 1 
   118   76   73 1 
   119   76   78 2 
   120   79   78 1 
   121   84   83 1 
   122   73   75 1 
   123   73   74 1 
   124   78   80 1 
   125   88   87 1 
   126   89   87 1 
   127   83   80 1 
   128   83   85 2 
   129   80   82 1 
   130   80   81 1 
   131   87   85 1 
   132   87   90 1 
   133   93   92 1 
   134   85   86 1 
   135   98   97 1 
   136   92   90 2 
   137   92   94 1 
   138   90   91 1 
   139   99   97 1 
   140   97   94 1 
   141   97  100 1 
   142   94   96 1 
   143   94   95 1 
