@<TRIPOS>MOLECULE
C:\Users\Praveer\PycharmProjects\pdb_to_mol2_converter\data\pdb\pnpi24.pdb
  140   140     0     0     0
SMALL
GASTEIGER

@<TRIPOS>ATOM
      1 C12         1.7290    0.2730    0.5110 C.3       1 PNP1        0.0000
      2 H2          2.2960   -0.4600   -0.1130 H         1 PNP1        0.0000
      3 O2          2.0020   -0.0620    1.8720 O.3       1 PNP1        0.0000
      4 HO2         1.2410   -0.5790    2.2040 H         1 PNP1        0.0000
      5 C13         2.2480    1.6510    0.1820 C.3       1 PNP1        0.0000
      6 H3          2.0760    1.7960   -0.9110 H         1 PNP1        0.0000
      7 O3          3.6580    1.6870    0.4210 O.3       1 PNP1        0.0000
      8 HO3         3.7250    1.2600    1.2860 H         1 PNP1        0.0000
      9 C14         1.5000    2.7590    0.9460 C.3       1 PNP1        0.0000
     10 H4          1.9670    2.7080    1.9650 H         1 PNP1        0.0000
     11 O4          1.7190    4.1090    0.5280 O.3       1 PNP1        0.0000
     12 P4          2.3890    4.7140   -0.8300 P.3       1 PNP1        0.0000
     13 OP42        3.9060    4.3080   -0.5520 O.3       1 PNP1        0.0000
     14 HP42        3.8870    3.3820   -0.2610 H         1 PNP1        0.0000
     15 OP43        1.9220    3.9660   -2.0640 O.2       1 PNP1        0.0000
     16 OP44        2.3150    6.2370   -0.8450 O.3       1 PNP1        0.0000
     17 C15        -0.0120    2.4970    1.2560 C.3       1 PNP1        0.0000
     18 H5         -0.5370    3.2070    0.5610 H         1 PNP1        0.0000
     19 O5         -0.3420    2.8800    2.6040 O.3       1 PNP1        0.0000
     20 P5         -1.8660    3.3670    3.0640 P.3       1 PNP1        0.0000
     21 OP52       -2.1630    4.6750    2.3480 O.2       1 PNP1        0.0000
     22 OP53       -2.8100    2.2450    2.6410 O.3       1 PNP1        0.0000
     23 OP54       -1.7980    3.5300    4.5830 O.3       1 PNP1        0.0000
     24 C16        -0.5970    1.0960    0.9230 C.3       1 PNP1        0.0000
     25 H6         -0.7120    0.5830    1.9120 H         1 PNP1        0.0000
     26 O6         -1.9200    1.2090    0.4220 O.3       1 PNP1        0.0000
     27 HO6        -2.3880    1.6360    1.1870 H         1 PNP1        0.0000
     28 C11         0.2700    0.1340    0.1180 C.3       1 PNP1        0.0000
     29 H1          0.2120    0.5350   -0.9270 H         1 PNP1        0.0000
     30 P          -0.0130   -2.4770    1.0510 P.3       1 PNP1        0.0000
     31 O13         0.2120   -1.9820    2.4310 O.3       1 PNP1        0.0000
     32 O14         1.0120   -3.3940    0.5140 O.2       1 PNP1        0.0000
     33 O12        -0.2110   -1.2190    0.0120 O.3       1 PNP1        0.0000
     34 O11        -1.3900   -3.2770    1.0310 O.3       1 PNP1        0.0000
     35 C1         -1.6230   -4.3570    1.9500 C.3       1 PNP1        0.0000
     36 HA         -2.5650   -4.1500    2.5030 H         1 PNP1        0.0000
     37 HB         -0.8210   -4.4710    2.7220 H         1 PNP1        0.0000
     38 C2         -1.7820   -5.7160    1.2110 C.3       1 PNP1        0.0000
     39 HS         -2.6350   -5.5980    0.5000 H         1 PNP1        0.0000
     40 O21        -2.0360   -6.7370    2.2050 O.3       1 PNP1        0.0000
     41 C21        -2.7220   -7.7870    1.7840 C.2       1 PNP1        0.0000
     42 O22        -3.2510   -7.9130    0.6890 O.2       1 PNP1        0.0000
     43 C22        -2.7660   -8.8460    2.8920 C.3       1 PNP1        0.0000
     44 H2R        -3.2520   -8.3850    3.7750 H         1 PNP1        0.0000
     45 H2S        -1.7190   -9.1050    3.1550 H         1 PNP1        0.0000
     46 C3         -0.5050   -6.0530    0.3790 C.3       1 PNP1        0.0000
     47 HX          0.3590   -5.9850    1.0770 H         1 PNP1        0.0000
     48 HY         -0.3530   -5.2560   -0.3870 H         1 PNP1        0.0000
     49 O31        -0.5270   -7.3780   -0.1980 O.3       1 PNP1        0.0000
     50 C31        -1.1070   -7.4510   -1.3910 C.2       1 PNP1        0.0000
     51 O32        -1.5740   -6.5230   -2.0230 O.2       1 PNP1        0.0000
     52 C32        -1.0730   -8.9030   -1.8630 C.3       1 PNP1        0.0000
     53 H2X        -1.6820   -9.4940   -1.1480 H         1 PNP1        0.0000
     54 H2Y        -0.0230   -9.2580   -1.8260 H         1 PNP1        0.0000
     55 C23        -3.5350  -10.1240    2.4700 C.3       1 PNP1        0.0000
     56 H3R        -3.0230  -10.5960    1.6010 H         1 PNP1        0.0000
     57 H3S        -4.5630   -9.8490    2.1410 H         1 PNP1        0.0000
     58 C24        -3.6530  -11.1640    3.5970 C.3       1 PNP1        0.0000
     59 H4R        -4.1670  -10.7020    4.4690 H         1 PNP1        0.0000
     60 H4S        -2.6340  -11.4690    3.9260 H         1 PNP1        0.0000
     61 C25        -4.4360  -12.4180    3.1690 C.3       1 PNP1        0.0000
     62 H5R        -3.9190  -12.8940    2.3060 H         1 PNP1        0.0000
     63 H5S        -5.4510  -12.1130    2.8270 H         1 PNP1        0.0000
     64 C26        -4.5840  -13.4520    4.2960 C.3       1 PNP1        0.0000
     65 H6R        -5.1060  -12.9800    5.1580 H         1 PNP1        0.0000
     66 H6S        -3.5720  -13.7600    4.6420 H         1 PNP1        0.0000
     67 C27        -5.3670  -14.7040    3.8680 C.3       1 PNP1        0.0000
     68 H7R        -4.8530  -15.1670    2.9960 H         1 PNP1        0.0000
     69 H7S        -6.3850  -14.3950    3.5390 H         1 PNP1        0.0000
     70 C28        -5.4890  -15.7390    5.0040 C.3       1 PNP1        0.0000
     71 H8R        -5.9630  -15.2360    5.8760 H         1 PNP1        0.0000
     72 H8S        -4.4630  -16.0320    5.3210 H         1 PNP1        0.0000
     73 C29        -6.2580  -16.9660    4.5740 C.2       1 PNP1        0.0000
     74 H91        -5.8410  -17.4830    3.6960 H         1 PNP1        0.0000
     75 C210       -7.3820  -17.4540    5.1370 C.2       1 PNP1        0.0000
     76 H101       -7.8330  -18.3630    4.7100 H         1 PNP1        0.0000
     77 C211       -8.1160  -16.8880    6.3310 C.3       1 PNP1        0.0000
     78 H11R       -7.3870  -16.4720    7.0620 H         1 PNP1        0.0000
     79 H11S       -8.6270  -17.7190    6.8670 H         1 PNP1        0.0000
     80 C212       -9.1170  -15.8190    5.9630 C.2       1 PNP1        0.0000
     81 H121       -9.1470  -15.5060    4.9070 H         1 PNP1        0.0000
     82 C213       -9.9540  -15.2380    6.8380 C.2       1 PNP1        0.0000
     83 H131       -9.9150  -15.5480    7.8940 H         1 PNP1        0.0000
     84 C214      -10.9530  -14.1670    6.4710 C.3       1 PNP1        0.0000
     85 H14R      -11.6640  -14.5730    5.7160 H         1 PNP1        0.0000
     86 H14S      -10.4250  -13.3260    5.9690 H         1 PNP1        0.0000
     87 C215      -11.7320  -13.6320    7.6510 C.2       1 PNP1        0.0000
     88 H151      -11.4850  -14.0420    8.6420 H         1 PNP1        0.0000
     89 C216      -12.6930  -12.7010    7.5570 C.2       1 PNP1        0.0000
     90 H161      -12.9480  -12.2820    6.5720 H         1 PNP1        0.0000
     91 C217      -13.4740  -12.1640    8.7290 C.3       1 PNP1        0.0000
     92 H17R      -12.7880  -11.7040    9.4770 H         1 PNP1        0.0000
     93 H17S      -14.0180  -12.9870    9.2450 H         1 PNP1        0.0000
     94 C218      -14.4930  -11.1070    8.2800 C.3       1 PNP1        0.0000
     95 H18R      -15.2230  -11.5390    7.5610 H         1 PNP1        0.0000
     96 H18S      -13.9840  -10.2450    7.7960 H         1 PNP1        0.0000
     97 H18T      -15.0600  -10.7230    9.1540 H         1 PNP1        0.0000
     98 C33        -1.6390   -9.0540   -3.2900 C.3       1 PNP1        0.0000
     99 H3X        -1.0110   -8.4800   -4.0090 H         1 PNP1        0.0000
    100 H3Y        -2.6680   -8.6270   -3.3300 H         1 PNP1        0.0000
    101 C34        -1.7030  -10.5180   -3.7360 C.3       1 PNP1        0.0000
    102 H4X        -2.3300  -11.0900   -3.0160 H         1 PNP1        0.0000
    103 H4Y        -0.6800  -10.9570   -3.7180 H         1 PNP1        0.0000
    104 C35        -2.2940  -10.6680   -5.1420 C.3       1 PNP1        0.0000
    105 H5X        -1.6540  -10.1180   -5.8690 H         1 PNP1        0.0000
    106 H5Y        -3.3050  -10.2010   -5.1630 H         1 PNP1        0.0000
    107 C36        -2.4100  -12.1330   -5.5750 C.3       1 PNP1        0.0000
    108 H6X        -3.0590  -12.6760   -4.8510 H         1 PNP1        0.0000
    109 H6Y        -1.4010  -12.6020   -5.5430 H         1 PNP1        0.0000
    110 C37        -2.9920  -12.2870   -6.9850 C.3       1 PNP1        0.0000
    111 H7X        -2.3460  -11.7390   -7.7070 H         1 PNP1        0.0000
    112 H7Y        -4.0040  -11.8240   -7.0170 H         1 PNP1        0.0000
    113 C38        -3.0910  -13.7560   -7.4090 C.3       1 PNP1        0.0000
    114 H8X        -3.7470  -14.2980   -6.6910 H         1 PNP1        0.0000
    115 H8Y        -2.0790  -14.2160   -7.3550 H         1 PNP1        0.0000
    116 C39        -3.6440  -13.9330   -8.8270 C.3       1 PNP1        0.0000
    117 H9X        -2.9920  -13.3850   -9.5450 H         1 PNP1        0.0000
    118 H9Y        -4.6620  -13.4870   -8.8850 H         1 PNP1        0.0000
    119 C310       -3.7140  -15.4090   -9.2380 C.3       1 PNP1        0.0000
    120 H10X       -4.3720  -15.9550   -8.5250 H         1 PNP1        0.0000
    121 H10Y       -2.6960  -15.8540   -9.1650 H         1 PNP1        0.0000
    122 C311       -4.2430  -15.6030  -10.6630 C.3       1 PNP1        0.0000
    123 H11X       -3.5870  -15.0520  -11.3740 H         1 PNP1        0.0000
    124 H11Y       -5.2650  -15.1660  -10.7370 H         1 PNP1        0.0000
    125 C312       -4.2950  -17.0810  -11.0690 C.3       1 PNP1        0.0000
    126 H12X       -4.9560  -17.6310  -10.3620 H         1 PNP1        0.0000
    127 H12Y       -3.2740  -17.5170  -10.9890 H         1 PNP1        0.0000
    128 C313       -4.8130  -17.2780  -12.4990 C.3       1 PNP1        0.0000
    129 H13X       -4.1540  -16.7240  -13.2050 H         1 PNP1        0.0000
    130 H13Y       -5.8360  -16.8450  -12.5800 H         1 PNP1        0.0000
    131 C314       -4.8590  -18.7550  -12.9070 C.3       1 PNP1        0.0000
    132 H14X       -5.5190  -19.3090  -12.2020 H         1 PNP1        0.0000
    133 H14Y       -3.8360  -19.1880  -12.8240 H         1 PNP1        0.0000
    134 C315       -5.3720  -18.9560  -14.3380 C.3       1 PNP1        0.0000
    135 H15X       -4.7120  -18.3940  -15.0380 H         1 PNP1        0.0000
    136 H15Y       -6.3930  -18.5160  -14.4170 H         1 PNP1        0.0000
    137 C316       -5.4210  -20.4260  -14.7600 C.3       1 PNP1        0.0000
    138 H16X       -6.0940  -21.0000  -14.0870 H         1 PNP1        0.0000
    139 H16Y       -4.4070  -20.8770  -14.7110 H         1 PNP1        0.0000
    140 H16Z       -5.7990  -20.5210  -15.8010 H         1 PNP1        0.0000
@<TRIPOS>BOND
     1  140  137 1 
     2  135  134 1 
     3  137  139 1 
     4  137  134 1 
     5  137  138 1 
     6  136  134 1 
     7  134  131 1 
     8  129  128 1 
     9  131  133 1 
    10  131  128 1 
    11  131  132 1 
    12  130  128 1 
    13  128  125 1 
    14  123  122 1 
    15  125  127 1 
    16  125  122 1 
    17  125  126 1 
    18  124  122 1 
    19  122  119 1 
    20  117  116 1 
    21  119  121 1 
    22  119  116 1 
    23  119  120 1 
    24  118  116 1 
    25  116  113 1 
    26  111  110 1 
    27  113  115 1 
    28  113  110 1 
    29  113  114 1 
    30  112  110 1 
    31  110  107 1 
    32  105  104 1 
    33  107  109 1 
    34  107  104 1 
    35  107  108 1 
    36  106  104 1 
    37  104  101 1 
    38   99   98 1 
    39  101  103 1 
    40  101   98 1 
    41  101  102 1 
    42  100   98 1 
    43   98   52 1 
    44   15   12 2 
    45   51   50 2 
    46   52   54 1 
    47   52   50 1 
    48   52   53 1 
    49   50   49 1 
    50   29   28 1 
    51    6    5 1 
    52   16   12 1 
    53   12   13 1 
    54   12   11 1 
    55   13   14 1 
    56   48   46 1 
    57   49   46 1 
    58    2    1 1 
    59   33   28 1 
    60   33   30 1 
    61   28    1 1 
    62   28   24 1 
    63    5    7 1 
    64    5    1 1 
    65    5    9 1 
    66   46   47 1 
    67   46   38 1 
    68    7    8 1 
    69   26   24 1 
    70   26   27 1 
    71   39   38 1 
    72    1    3 1 
    73   32   30 2 
    74   11    9 1 
    75   18   17 1 
    76   42   41 2 
    77   24   17 1 
    78   24   25 1 
    79    9   17 1 
    80    9   10 1 
    81   34   30 1 
    82   34   35 1 
    83   30   31 1 
    84   38   35 1 
    85   38   40 1 
    86   17   19 1 
    87   56   55 1 
    88   41   40 1 
    89   41   43 1 
    90    3    4 1 
    91   35   36 1 
    92   35   37 1 
    93   57   55 1 
    94   62   61 1 
    95   21   20 2 
    96   55   43 1 
    97   55   58 1 
    98   19   20 1 
    99   22   20 1 
   100   63   61 1 
   101   43   45 1 
   102   43   44 1 
   103   68   67 1 
   104   20   23 1 
   105   61   58 1 
   106   61   64 1 
   107   69   67 1 
   108   58   60 1 
   109   58   59 1 
   110   74   73 1 
   111   67   64 1 
   112   67   70 1 
   113   64   66 1 
   114   64   65 1 
   115   73   70 1 
   116   73   75 2 
   117   76   75 1 
   118   81   80 1 
   119   70   72 1 
   120   70   71 1 
   121   75   77 1 
   122   85   84 1 
   123   80   77 1 
   124   80   82 2 
   125   86   84 1 
   126   77   79 1 
   127   77   78 1 
   128   84   82 1 
   129   84   87 1 
   130   90   89 1 
   131   82   83 1 
   132   89   87 2 
   133   89   91 1 
   134   95   94 1 
   135   87   88 1 
   136   96   94 1 
   137   94   91 1 
   138   94   97 1 
   139   91   93 1 
   140   91   92 1 
