@<TRIPOS>MOLECULE
C:\Users\Praveer\PycharmProjects\pdb_to_mol2_converter\data\pdb\pnpi15.pdb
  136   136     0     0     0
SMALL
GASTEIGER

@<TRIPOS>ATOM
      1 C12         1.5850    0.2050    0.0540 C.3       1 PNP1        0.0000
      2 H2          1.9090   -0.3160   -0.8830 H         1 PNP1        0.0000
      3 O2          2.3140   -0.3900    1.1280 O.3       1 PNP1        0.0000
      4 HO2         2.0550   -1.3300    1.1810 H         1 PNP1        0.0000
      5 C13         1.9390    1.6730   -0.0910 C.3       1 PNP1        0.0000
      6 H3          1.4140    2.0610   -0.9960 H         1 PNP1        0.0000
      7 O3          3.3420    1.8250   -0.3260 O.3       1 PNP1        0.0000
      8 HO3         3.7600    1.4430    0.4520 H         1 PNP1        0.0000
      9 C14         1.4320    2.4920    1.0920 C.3       1 PNP1        0.0000
     10 H4          1.9480    2.1150    2.0060 H         1 PNP1        0.0000
     11 O4          1.7090    3.8890    0.9900 O.3       1 PNP1        0.0000
     12 HO4         0.9010    4.3420    1.3430 H         1 PNP1        0.0000
     13 C15        -0.0490    2.3230    1.3190 C.3       1 PNP1        0.0000
     14 H5         -0.5020    2.9060    0.4570 H         1 PNP1        0.0000
     15 O5         -0.4090    2.8390    2.6170 O.3       1 PNP1        0.0000
     16 P5         -1.4380    4.1190    2.6300 P.3       1 PNP1        0.0000
     17 OP52       -0.6260    5.1870    1.9110 O.3       1 PNP1        0.0000
     18 OP53       -2.6280    3.6110    1.8250 O.2       1 PNP1        0.0000
     19 OP54       -1.7510    4.4370    4.0790 O.3       1 PNP1        0.0000
     20 C16        -0.6390    0.9330    1.1780 C.3       1 PNP1        0.0000
     21 H6         -0.5420    0.4460    2.1830 H         1 PNP1        0.0000
     22 O6         -2.0300    1.0680    0.9130 O.3       1 PNP1        0.0000
     23 HO6        -2.2900    1.9430    1.3020 H         1 PNP1        0.0000
     24 C11         0.0760    0.0190    0.1810 C.3       1 PNP1        0.0000
     25 H1         -0.2800    0.4300   -0.8010 H         1 PNP1        0.0000
     26 P          -0.1690   -2.4300    1.3520 P.3       1 PNP1        0.0000
     27 O13        -0.5530   -1.9240    2.6810 O.3       1 PNP1        0.0000
     28 O14         1.1990   -2.9930    1.2280 O.2       1 PNP1        0.0000
     29 O12        -0.3620   -1.3380    0.1460 O.3       1 PNP1        0.0000
     30 O11        -1.2200   -3.5360    0.9410 O.3       1 PNP1        0.0000
     31 C1         -1.6610   -4.5070    1.8880 C.3       1 PNP1        0.0000
     32 HA         -2.6620   -4.2260    2.2840 H         1 PNP1        0.0000
     33 HB         -0.9620   -4.6160    2.7550 H         1 PNP1        0.0000
     34 C2         -1.7340   -5.8690    1.1790 C.3       1 PNP1        0.0000
     35 HS         -2.5500   -5.7990    0.4190 H         1 PNP1        0.0000
     36 O21        -1.9890   -6.8750    2.1810 O.3       1 PNP1        0.0000
     37 C21        -2.6440   -7.9360    1.7490 C.2       1 PNP1        0.0000
     38 O22        -3.1060   -8.1000    0.6370 O.2       1 PNP1        0.0000
     39 C22        -2.7420   -8.9470    2.8910 C.3       1 PNP1        0.0000
     40 H2R        -3.2390   -8.4510    3.7500 H         1 PNP1        0.0000
     41 H2S        -1.7110   -9.2270    3.1880 H         1 PNP1        0.0000
     42 C3         -0.3860   -6.1420    0.4450 C.3       1 PNP1        0.0000
     43 HX          0.4150   -6.1030    1.2180 H         1 PNP1        0.0000
     44 HY         -0.1730   -5.3080   -0.2650 H         1 PNP1        0.0000
     45 O31        -0.3530   -7.4280   -0.2050 O.3       1 PNP1        0.0000
     46 C31        -0.9280   -7.4500   -1.4020 C.2       1 PNP1        0.0000
     47 O32        -1.3610   -6.4870   -2.0130 O.2       1 PNP1        0.0000
     48 C32        -0.9570   -8.8910   -1.8930 C.3       1 PNP1        0.0000
     49 H2X        -1.5530   -9.4740   -1.1600 H         1 PNP1        0.0000
     50 H2Y         0.0830   -9.2740   -1.8980 H         1 PNP1        0.0000
     51 C23        -3.5350  -10.2030    2.4700 C.3       1 PNP1        0.0000
     52 H3R        -3.0270  -10.6950    1.6090 H         1 PNP1        0.0000
     53 H3S        -4.5550   -9.9060    2.1310 H         1 PNP1        0.0000
     54 C24        -3.6720  -11.2160    3.6120 C.3       1 PNP1        0.0000
     55 H4R        -4.1900  -10.7330    4.4710 H         1 PNP1        0.0000
     56 H4S        -2.6580  -11.5220    3.9550 H         1 PNP1        0.0000
     57 C25        -4.4580  -12.4640    3.1900 C.3       1 PNP1        0.0000
     58 H5R        -3.9430  -12.9440    2.3270 H         1 PNP1        0.0000
     59 H5S        -5.4730  -12.1590    2.8490 H         1 PNP1        0.0000
     60 C26        -4.5960  -13.4900    4.3230 C.3       1 PNP1        0.0000
     61 H6R        -5.1220  -13.0170    5.1830 H         1 PNP1        0.0000
     62 H6S        -3.5820  -13.7900    4.6690 H         1 PNP1        0.0000
     63 C27        -5.3720  -14.7410    3.8860 C.3       1 PNP1        0.0000
     64 H7R        -4.8540  -15.1910    3.0090 H         1 PNP1        0.0000
     65 H7S        -6.3900  -14.4310    3.5590 H         1 PNP1        0.0000
     66 C28        -5.4890  -15.7840    5.0130 C.3       1 PNP1        0.0000
     67 H8R        -5.9640  -15.2850    5.8880 H         1 PNP1        0.0000
     68 H8S        -4.4640  -16.0780    5.3280 H         1 PNP1        0.0000
     69 C29        -6.2600  -17.0050    4.5720 C.2       1 PNP1        0.0000
     70 H91        -5.8400  -17.5220    3.6930 H         1 PNP1        0.0000
     71 C210       -7.3890  -17.4860    5.1290 C.2       1 PNP1        0.0000
     72 H101       -7.8440  -18.3930    4.6990 H         1 PNP1        0.0000
     73 C211       -8.1210  -16.9180    6.3250 C.3       1 PNP1        0.0000
     74 H11R       -7.3870  -16.5080    7.0550 H         1 PNP1        0.0000
     75 H11S       -8.6270  -17.7500    6.8650 H         1 PNP1        0.0000
     76 C212       -9.1230  -15.8450    5.9680 C.2       1 PNP1        0.0000
     77 H121       -9.1560  -15.5380    4.9100 H         1 PNP1        0.0000
     78 C213       -9.9530  -15.2500    6.8470 C.2       1 PNP1        0.0000
     79 H131       -9.9090  -15.5510    7.9050 H         1 PNP1        0.0000
     80 C214      -10.9520  -14.1720    6.4850 C.3       1 PNP1        0.0000
     81 H14R      -11.6600  -14.5740    5.7250 H         1 PNP1        0.0000
     82 H14S      -10.4200  -13.3350    5.9790 H         1 PNP1        0.0000
     83 C215      -11.7390  -13.6250    7.6550 C.2       1 PNP1        0.0000
     84 H151      -11.4950  -14.0330    8.6490 H         1 PNP1        0.0000
     85 C216      -12.7040  -12.6890    7.5600 C.2       1 PNP1        0.0000
     86 H161      -12.9600  -12.2710    6.5730 H         1 PNP1        0.0000
     87 C217      -13.4890  -12.1490    8.7290 C.3       1 PNP1        0.0000
     88 H17R      -12.8060  -11.6910    9.4800 H         1 PNP1        0.0000
     89 H17S      -14.0320  -12.9720    9.2470 H         1 PNP1        0.0000
     90 C218      -14.5110  -11.0900    8.2870 C.3       1 PNP1        0.0000
     91 H18R      -15.2380  -11.5210    7.5650 H         1 PNP1        0.0000
     92 H18S      -14.0040  -10.2310    7.7980 H         1 PNP1        0.0000
     93 H18T      -15.0780  -10.7070    9.1650 H         1 PNP1        0.0000
     94 C33        -1.5870   -9.0160   -3.2950 C.3       1 PNP1        0.0000
     95 H3X        -0.9760   -8.4490   -4.0340 H         1 PNP1        0.0000
     96 H3Y        -2.6070   -8.5670   -3.2880 H         1 PNP1        0.0000
     97 C34        -1.6960  -10.4790   -3.7380 C.3       1 PNP1        0.0000
     98 H4X        -2.3280  -11.0310   -3.0070 H         1 PNP1        0.0000
     99 H4Y        -0.6830  -10.9400   -3.7260 H         1 PNP1        0.0000
    100 C35        -2.3000  -10.6290   -5.1400 C.3       1 PNP1        0.0000
    101 H5X        -1.6640  -10.0820   -5.8710 H         1 PNP1        0.0000
    102 H5Y        -3.3100  -10.1610   -5.1540 H         1 PNP1        0.0000
    103 C36        -2.4160  -12.0970   -5.5680 C.3       1 PNP1        0.0000
    104 H6X        -3.0640  -12.6370   -4.8410 H         1 PNP1        0.0000
    105 H6Y        -1.4060  -12.5650   -5.5320 H         1 PNP1        0.0000
    106 C37        -2.9950  -12.2670   -6.9780 C.3       1 PNP1        0.0000
    107 H7X        -2.3500  -11.7230   -7.7050 H         1 PNP1        0.0000
    108 H7Y        -4.0090  -11.8100   -7.0170 H         1 PNP1        0.0000
    109 C38        -3.0870  -13.7410   -7.3940 C.3       1 PNP1        0.0000
    110 H8X        -3.7420  -14.2820   -6.6750 H         1 PNP1        0.0000
    111 H8Y        -2.0740  -14.1980   -7.3380 H         1 PNP1        0.0000
    112 C39        -3.6390  -13.9260   -8.8130 C.3       1 PNP1        0.0000
    113 H9X        -2.9870  -13.3790   -9.5310 H         1 PNP1        0.0000
    114 H9Y        -4.6570  -13.4810   -8.8730 H         1 PNP1        0.0000
    115 C310       -3.7080  -15.4020   -9.2230 C.3       1 PNP1        0.0000
    116 H10X       -4.3680  -15.9490   -8.5120 H         1 PNP1        0.0000
    117 H10Y       -2.6910  -15.8480   -9.1510 H         1 PNP1        0.0000
    118 C311       -4.2380  -15.5950  -10.6490 C.3       1 PNP1        0.0000
    119 H11X       -3.5810  -15.0440  -11.3600 H         1 PNP1        0.0000
    120 H11Y       -5.2590  -15.1580  -10.7230 H         1 PNP1        0.0000
    121 C312       -4.2910  -17.0720  -11.0580 C.3       1 PNP1        0.0000
    122 H12X       -4.9520  -17.6230  -10.3510 H         1 PNP1        0.0000
    123 H12Y       -3.2700  -17.5090  -10.9770 H         1 PNP1        0.0000
    124 C313       -4.8090  -17.2690  -12.4880 C.3       1 PNP1        0.0000
    125 H13X       -4.1500  -16.7150  -13.1930 H         1 PNP1        0.0000
    126 H13Y       -5.8310  -16.8350  -12.5680 H         1 PNP1        0.0000
    127 C314       -4.8550  -18.7460  -12.8970 C.3       1 PNP1        0.0000
    128 H14X       -5.5150  -19.3000  -12.1920 H         1 PNP1        0.0000
    129 H14Y       -3.8330  -19.1790  -12.8140 H         1 PNP1        0.0000
    130 C315       -5.3690  -18.9460  -14.3280 C.3       1 PNP1        0.0000
    131 H15X       -4.7090  -18.3840  -15.0270 H         1 PNP1        0.0000
    132 H15Y       -6.3890  -18.5060  -14.4060 H         1 PNP1        0.0000
    133 C316       -5.4180  -20.4160  -14.7510 C.3       1 PNP1        0.0000
    134 H16X       -6.0910  -20.9910  -14.0780 H         1 PNP1        0.0000
    135 H16Y       -4.4040  -20.8680  -14.7020 H         1 PNP1        0.0000
    136 H16Z       -5.7960  -20.5110  -15.7910 H         1 PNP1        0.0000
@<TRIPOS>BOND
     1  136  133 1 
     2  131  130 1 
     3  133  135 1 
     4  133  130 1 
     5  133  134 1 
     6  132  130 1 
     7  130  127 1 
     8  125  124 1 
     9  127  129 1 
    10  127  124 1 
    11  127  128 1 
    12  126  124 1 
    13  124  121 1 
    14  119  118 1 
    15  121  123 1 
    16  121  118 1 
    17  121  122 1 
    18  120  118 1 
    19  118  115 1 
    20  113  112 1 
    21  115  117 1 
    22  115  112 1 
    23  115  116 1 
    24  114  112 1 
    25  112  109 1 
    26  107  106 1 
    27  109  111 1 
    28  109  106 1 
    29  109  110 1 
    30  108  106 1 
    31  106  103 1 
    32  101  100 1 
    33  103  105 1 
    34  103  100 1 
    35  103  104 1 
    36  102  100 1 
    37  100   97 1 
    38   95   94 1 
    39   97   99 1 
    40   97   94 1 
    41   97   98 1 
    42   94   96 1 
    43   94   48 1 
    44   47   46 2 
    45   50   48 1 
    46   48   46 1 
    47   48   49 1 
    48   46   45 1 
    49    6    5 1 
    50    2    1 1 
    51   25   24 1 
    52    7    5 1 
    53    7    8 1 
    54   44   42 1 
    55   45   42 1 
    56    5    1 1 
    57    5    9 1 
    58    1   24 1 
    59    1    3 1 
    60   29   24 1 
    61   29   26 1 
    62   24   20 1 
    63   35   34 1 
    64   42   34 1 
    65   42   43 1 
    66   14   13 1 
    67   38   37 2 
    68   22   20 1 
    69   22   23 1 
    70   30   26 1 
    71   30   31 1 
    72   11    9 1 
    73   11   12 1 
    74    9   13 1 
    75    9   10 1 
    76    3    4 1 
    77   20   13 1 
    78   20   21 1 
    79   34   31 1 
    80   34   36 1 
    81   28   26 2 
    82   13   15 1 
    83   26   27 1 
    84   52   51 1 
    85   37   36 1 
    86   37   39 1 
    87   18   16 2 
    88   31   32 1 
    89   31   33 1 
    90   17   16 1 
    91   53   51 1 
    92   58   57 1 
    93   51   39 1 
    94   51   54 1 
    95   15   16 1 
    96   16   19 1 
    97   59   57 1 
    98   39   41 1 
    99   39   40 1 
   100   64   63 1 
   101   57   54 1 
   102   57   60 1 
   103   65   63 1 
   104   54   56 1 
   105   54   55 1 
   106   70   69 1 
   107   63   60 1 
   108   63   66 1 
   109   60   62 1 
   110   60   61 1 
   111   69   66 1 
   112   69   71 2 
   113   72   71 1 
   114   77   76 1 
   115   66   68 1 
   116   66   67 1 
   117   71   73 1 
   118   81   80 1 
   119   76   73 1 
   120   76   78 2 
   121   82   80 1 
   122   73   75 1 
   123   73   74 1 
   124   80   78 1 
   125   80   83 1 
   126   86   85 1 
   127   78   79 1 
   128   85   83 2 
   129   85   87 1 
   130   91   90 1 
   131   83   84 1 
   132   92   90 1 
   133   90   87 1 
   134   90   93 1 
   135   87   89 1 
   136   87   88 1 
