@<TRIPOS>MOLECULE
C:\Users\Praveer\PycharmProjects\pdb_to_mol2_converter\data\pdb\pnpi25.pdb
  140   140     0     0     0
SMALL
GASTEIGER

@<TRIPOS>ATOM
      1 C12         1.7890    0.1580    0.3230 C.3       1 PNP1        0.0000
      2 H2          2.3080   -0.4420   -0.4640 H         1 PNP1        0.0000
      3 O2          2.2240   -0.3410    1.5840 O.3       1 PNP1        0.0000
      4 HO2         1.5820   -0.0450    2.2390 H         1 PNP1        0.0000
      5 C13         2.1720    1.6140    0.1220 C.3       1 PNP1        0.0000
      6 H3          1.6930    1.9810   -0.8130 H         1 PNP1        0.0000
      7 O3          3.5740    1.7250   -0.0930 O.3       1 PNP1        0.0000
      8 HO3         3.8530    2.6090    0.2760 H         1 PNP1        0.0000
      9 C14         1.6540    2.4930    1.2580 C.3       1 PNP1        0.0000
     10 H4          2.1340    2.1630    2.2100 H         1 PNP1        0.0000
     11 O4          1.9140    3.8870    1.0270 O.3       1 PNP1        0.0000
     12 P4          3.2850    4.6740    1.5270 P.3       1 PNP1        0.0000
     13 OP42        3.0760    6.1300    1.1280 O.3       1 PNP1        0.0000
     14 OP43        3.4180    4.4670    3.0320 O.3       1 PNP1        0.0000
     15 OP44        4.4210    4.0150    0.7520 O.2       1 PNP1        0.0000
     16 C15         0.1190    2.3110    1.4160 C.3       1 PNP1        0.0000
     17 H5         -0.2740    3.0970    0.7120 H         1 PNP1        0.0000
     18 O5         -0.3010    2.6600    2.7470 O.3       1 PNP1        0.0000
     19 P5         -1.8400    3.1700    3.0250 P.3       1 PNP1        0.0000
     20 OP52       -2.2350    1.7860    3.6950 O.3       1 PNP1        0.0000
     21 HP52       -1.4190    1.2750    3.7810 H         1 PNP1        0.0000
     22 OP53       -2.6240    3.3180    1.7280 O.2       1 PNP1        0.0000
     23 OP54       -1.9320    4.2650    4.0790 O.3       1 PNP1        0.0000
     24 C16        -0.5450    1.0000    0.8800 C.3       1 PNP1        0.0000
     25 H6         -0.8020    0.4510    1.8190 H         1 PNP1        0.0000
     26 O6         -1.7970    1.2530    0.2460 O.3       1 PNP1        0.0000
     27 HO6        -2.1870    2.0260    0.7130 H         1 PNP1        0.0000
     28 C11         0.2980   -0.0200    0.1000 C.3       1 PNP1        0.0000
     29 H1          0.1730    0.3240   -0.9620 H         1 PNP1        0.0000
     30 P          -0.0990   -2.4930    1.2760 P.3       1 PNP1        0.0000
     31 O13        -0.1390   -1.8590    2.6150 O.3       1 PNP1        0.0000
     32 O14         0.9910   -3.4620    1.0100 O.2       1 PNP1        0.0000
     33 O12        -0.1830   -1.3750    0.0630 O.3       1 PNP1        0.0000
     34 O11        -1.4600   -3.3100    1.1130 O.3       1 PNP1        0.0000
     35 C1         -1.7260   -4.4120    1.9960 C.3       1 PNP1        0.0000
     36 HA         -2.6960   -4.2370    2.5120 H         1 PNP1        0.0000
     37 HB         -0.9540   -4.5340    2.7950 H         1 PNP1        0.0000
     38 C2         -1.8280   -5.7560    1.2240 C.3       1 PNP1        0.0000
     39 HS         -2.6670   -5.6520    0.4950 H         1 PNP1        0.0000
     40 O21        -2.0820   -6.7890    2.1990 O.3       1 PNP1        0.0000
     41 C21        -2.7460   -7.8410    1.7590 C.2       1 PNP1        0.0000
     42 O22        -3.2550   -7.9740    0.6610 O.2       1 PNP1        0.0000
     43 C22        -2.7890   -8.8900    2.8730 C.3       1 PNP1        0.0000
     44 H2R        -3.2770   -8.4250    3.7540 H         1 PNP1        0.0000
     45 H2S        -1.7430   -9.1450    3.1390 H         1 PNP1        0.0000
     46 C3         -0.5190   -6.0610    0.4300 C.3       1 PNP1        0.0000
     47 HX          0.3240   -6.0100    1.1560 H         1 PNP1        0.0000
     48 HY         -0.3460   -5.2410   -0.3060 H         1 PNP1        0.0000
     49 O31        -0.5120   -7.3720   -0.1830 O.3       1 PNP1        0.0000
     50 C31        -1.0690   -7.4260   -1.3890 C.2       1 PNP1        0.0000
     51 O32        -1.5160   -6.4890   -2.0180 O.2       1 PNP1        0.0000
     52 C32        -1.0490   -8.8780   -1.8690 C.3       1 PNP1        0.0000
     53 H2X        -1.6560   -9.4690   -1.1500 H         1 PNP1        0.0000
     54 H2Y        -0.0020   -9.2390   -1.8390 H         1 PNP1        0.0000
     55 C23        -3.5560  -10.1670    2.4560 C.3       1 PNP1        0.0000
     56 H3R        -3.0420  -10.6430    1.5900 H         1 PNP1        0.0000
     57 H3S        -4.5850   -9.8940    2.1260 H         1 PNP1        0.0000
     58 C24        -3.6680  -11.1940    3.5930 C.3       1 PNP1        0.0000
     59 H4R        -4.1810  -10.7240    4.4620 H         1 PNP1        0.0000
     60 H4S        -2.6480  -11.4930    3.9230 H         1 PNP1        0.0000
     61 C25        -4.4490  -12.4480    3.1740 C.3       1 PNP1        0.0000
     62 H5R        -3.9330  -12.9280    2.3120 H         1 PNP1        0.0000
     63 H5S        -5.4650  -12.1470    2.8330 H         1 PNP1        0.0000
     64 C26        -4.5890  -13.4740    4.3070 C.3       1 PNP1        0.0000
     65 H6R        -5.1110  -12.9990    5.1680 H         1 PNP1        0.0000
     66 H6S        -3.5750  -13.7770    4.6520 H         1 PNP1        0.0000
     67 C27        -5.3700  -14.7260    3.8800 C.3       1 PNP1        0.0000
     68 H7R        -4.8540  -15.1860    3.0060 H         1 PNP1        0.0000
     69 H7S        -6.3880  -14.4170    3.5510 H         1 PNP1        0.0000
     70 C28        -5.4880  -15.7620    5.0140 C.3       1 PNP1        0.0000
     71 H8R        -5.9610  -15.2590    5.8870 H         1 PNP1        0.0000
     72 H8S        -4.4620  -16.0550    5.3300 H         1 PNP1        0.0000
     73 C29        -6.2590  -16.9850    4.5770 C.2       1 PNP1        0.0000
     74 H91        -5.8360  -17.5050    3.7040 H         1 PNP1        0.0000
     75 C210       -7.3900  -17.4650    5.1330 C.2       1 PNP1        0.0000
     76 H101       -7.8430  -18.3730    4.7030 H         1 PNP1        0.0000
     77 C211       -8.1240  -16.8970    6.3260 C.3       1 PNP1        0.0000
     78 H11R       -7.3950  -16.4810    7.0570 H         1 PNP1        0.0000
     79 H11S       -8.6360  -17.7280    6.8620 H         1 PNP1        0.0000
     80 C212       -9.1260  -15.8260    5.9650 C.2       1 PNP1        0.0000
     81 H121       -9.1630  -15.5120    4.9100 H         1 PNP1        0.0000
     82 C213       -9.9550  -15.2430    6.8470 C.2       1 PNP1        0.0000
     83 H131       -9.9090  -15.5520    7.9040 H         1 PNP1        0.0000
     84 C214      -10.9520  -14.1700    6.4800 C.3       1 PNP1        0.0000
     85 H14R      -11.6640  -14.5770    5.7240 H         1 PNP1        0.0000
     86 H14S      -10.4200  -13.3280    5.9790 H         1 PNP1        0.0000
     87 C215      -11.7320  -13.6330    7.6570 C.2       1 PNP1        0.0000
     88 H151      -11.4890  -14.0390    8.6510 H         1 PNP1        0.0000
     89 C216      -12.6930  -12.7010    7.5560 C.2       1 PNP1        0.0000
     90 H161      -12.9410  -12.2890    6.5660 H         1 PNP1        0.0000
     91 C217      -13.4770  -12.1600    8.7230 C.3       1 PNP1        0.0000
     92 H17R      -12.7910  -11.6990    9.4710 H         1 PNP1        0.0000
     93 H17S      -14.0230  -12.9840    9.2380 H         1 PNP1        0.0000
     94 C218      -14.4980  -11.1010    8.2800 C.3       1 PNP1        0.0000
     95 H18R      -15.2320  -11.5290    7.5630 H         1 PNP1        0.0000
     96 H18S      -13.9950  -10.2370    7.7970 H         1 PNP1        0.0000
     97 H18T      -15.0610  -10.7220    9.1600 H         1 PNP1        0.0000
     98 C33        -1.6300   -9.0300   -3.2920 C.3       1 PNP1        0.0000
     99 H3X        -1.0060   -8.4580   -4.0170 H         1 PNP1        0.0000
    100 H3Y        -2.6580   -8.6000   -3.3220 H         1 PNP1        0.0000
    101 C34        -1.7020  -10.4960   -3.7370 C.3       1 PNP1        0.0000
    102 H4X        -2.3300  -11.0640   -3.0140 H         1 PNP1        0.0000
    103 H4Y        -0.6810  -10.9380   -3.7210 H         1 PNP1        0.0000
    104 C35        -2.2960  -10.6520   -5.1430 C.3       1 PNP1        0.0000
    105 H5X        -1.6580  -10.1050   -5.8730 H         1 PNP1        0.0000
    106 H5Y        -3.3080  -10.1870   -5.1650 H         1 PNP1        0.0000
    107 C36        -2.4100  -12.1200   -5.5710 C.3       1 PNP1        0.0000
    108 H6X        -3.0580  -12.6610   -4.8450 H         1 PNP1        0.0000
    109 H6Y        -1.4000  -12.5880   -5.5370 H         1 PNP1        0.0000
    110 C37        -2.9920  -12.2810   -6.9810 C.3       1 PNP1        0.0000
    111 H7X        -2.3460  -11.7350   -7.7050 H         1 PNP1        0.0000
    112 H7Y        -4.0040  -11.8200   -7.0150 H         1 PNP1        0.0000
    113 C38        -3.0900  -13.7520   -7.4040 C.3       1 PNP1        0.0000
    114 H8X        -3.7460  -14.2940   -6.6860 H         1 PNP1        0.0000
    115 H8Y        -2.0770  -14.2120   -7.3500 H         1 PNP1        0.0000
    116 C39        -3.6430  -13.9320   -8.8230 C.3       1 PNP1        0.0000
    117 H9X        -2.9910  -13.3840   -9.5410 H         1 PNP1        0.0000
    118 H9Y        -4.6610  -13.4860   -8.8810 H         1 PNP1        0.0000
    119 C310       -3.7130  -15.4080   -9.2350 C.3       1 PNP1        0.0000
    120 H10X       -4.3720  -15.9550   -8.5240 H         1 PNP1        0.0000
    121 H10Y       -2.6950  -15.8530   -9.1630 H         1 PNP1        0.0000
    122 C311       -4.2430  -15.6030  -10.6610 C.3       1 PNP1        0.0000
    123 H11X       -3.5860  -15.0530  -11.3720 H         1 PNP1        0.0000
    124 H11Y       -5.2640  -15.1660  -10.7360 H         1 PNP1        0.0000
    125 C312       -4.2950  -17.0810  -11.0690 C.3       1 PNP1        0.0000
    126 H12X       -4.9560  -17.6320  -10.3620 H         1 PNP1        0.0000
    127 H12Y       -3.2750  -17.5170  -10.9890 H         1 PNP1        0.0000
    128 C313       -4.8130  -17.2780  -12.4990 C.3       1 PNP1        0.0000
    129 H13X       -4.1540  -16.7250  -13.2050 H         1 PNP1        0.0000
    130 H13Y       -5.8360  -16.8450  -12.5800 H         1 PNP1        0.0000
    131 C314       -4.8590  -18.7560  -12.9080 C.3       1 PNP1        0.0000
    132 H14X       -5.5190  -19.3100  -12.2030 H         1 PNP1        0.0000
    133 H14Y       -3.8360  -19.1890  -12.8250 H         1 PNP1        0.0000
    134 C315       -5.3730  -18.9570  -14.3390 C.3       1 PNP1        0.0000
    135 H15X       -4.7130  -18.3950  -15.0390 H         1 PNP1        0.0000
    136 H15Y       -6.3930  -18.5170  -14.4180 H         1 PNP1        0.0000
    137 C316       -5.4220  -20.4270  -14.7620 C.3       1 PNP1        0.0000
    138 H16X       -6.0940  -21.0020  -14.0890 H         1 PNP1        0.0000
    139 H16Y       -4.4080  -20.8790  -14.7120 H         1 PNP1        0.0000
    140 H16Z       -5.8000  -20.5220  -15.8020 H         1 PNP1        0.0000
@<TRIPOS>BOND
     1  140  137 1 
     2  135  134 1 
     3  137  139 1 
     4  137  134 1 
     5  137  138 1 
     6  136  134 1 
     7  134  131 1 
     8  129  128 1 
     9  131  133 1 
    10  131  128 1 
    11  131  132 1 
    12  130  128 1 
    13  128  125 1 
    14  123  122 1 
    15  125  127 1 
    16  125  122 1 
    17  125  126 1 
    18  124  122 1 
    19  122  119 1 
    20  117  116 1 
    21  119  121 1 
    22  119  116 1 
    23  119  120 1 
    24  118  116 1 
    25  116  113 1 
    26  111  110 1 
    27  113  115 1 
    28  113  110 1 
    29  113  114 1 
    30  112  110 1 
    31  110  107 1 
    32  105  104 1 
    33  107  109 1 
    34  107  104 1 
    35  107  108 1 
    36  106  104 1 
    37  104  101 1 
    38   99   98 1 
    39  101  103 1 
    40  101   98 1 
    41  101  102 1 
    42  100   98 1 
    43   98   52 1 
    44   51   50 2 
    45   52   54 1 
    46   52   50 1 
    47   52   53 1 
    48   50   49 1 
    49   29   28 1 
    50    6    5 1 
    51    2    1 1 
    52   48   46 1 
    53   49   46 1 
    54    7    5 1 
    55    7    8 1 
    56   33   28 1 
    57   33   30 1 
    58   28    1 1 
    59   28   24 1 
    60    5    1 1 
    61    5    9 1 
    62   26   27 1 
    63   26   24 1 
    64    1    3 1 
    65   46   47 1 
    66   46   38 1 
    67   39   38 1 
    68   42   41 2 
    69   17   16 1 
    70   15   12 2 
    71   24   16 1 
    72   24   25 1 
    73   32   30 2 
    74   11    9 1 
    75   11   12 1 
    76   34   30 1 
    77   34   35 1 
    78   13   12 1 
    79   38   35 1 
    80   38   40 1 
    81    9   16 1 
    82    9   10 1 
    83   30   31 1 
    84   16   18 1 
    85   12   14 1 
    86    3    4 1 
    87   56   55 1 
    88   22   19 2 
    89   41   40 1 
    90   41   43 1 
    91   35   36 1 
    92   35   37 1 
    93   57   55 1 
    94   62   61 1 
    95   55   43 1 
    96   55   58 1 
    97   18   19 1 
    98   63   61 1 
    99   43   45 1 
   100   43   44 1 
   101   68   67 1 
   102   19   20 1 
   103   19   23 1 
   104   61   58 1 
   105   61   64 1 
   106   69   67 1 
   107   58   60 1 
   108   58   59 1 
   109   20   21 1 
   110   74   73 1 
   111   67   64 1 
   112   67   70 1 
   113   64   66 1 
   114   64   65 1 
   115   73   70 1 
   116   73   75 2 
   117   76   75 1 
   118   81   80 1 
   119   70   72 1 
   120   70   71 1 
   121   75   77 1 
   122   85   84 1 
   123   80   77 1 
   124   80   82 2 
   125   86   84 1 
   126   77   79 1 
   127   77   78 1 
   128   84   82 1 
   129   84   87 1 
   130   90   89 1 
   131   82   83 1 
   132   89   87 2 
   133   89   91 1 
   134   95   94 1 
   135   87   88 1 
   136   96   94 1 
   137   94   91 1 
   138   94   97 1 
   139   91   93 1 
   140   91   92 1 
