@<TRIPOS>MOLECULE
C:\Users\Praveer\PycharmProjects\pdb_to_mol2_converter\data\pdb\pnpi13.pdb
  136   136     0     0     0
SMALL
GASTEIGER

@<TRIPOS>ATOM
      1 C12         1.8620    0.1190    0.3320 C.3       1 PNP1        0.0000
      2 H2          2.2640   -0.5410   -0.4760 H         1 PNP1        0.0000
      3 O2          2.4340   -0.3100    1.5530 O.3       1 PNP1        0.0000
      4 HO2         3.3730   -0.4410    1.2750 H         1 PNP1        0.0000
      5 C13         2.2860    1.5560    0.0550 C.3       1 PNP1        0.0000
      6 H3          1.9450    1.7680   -0.9910 H         1 PNP1        0.0000
      7 O3          3.7000    1.8160    0.0970 O.3       1 PNP1        0.0000
      8 P3          4.7780    0.8280   -0.6600 P.3       1 PNP1        0.0000
      9 OP32        6.0920    1.5920   -0.6700 O.3       1 PNP1        0.0000
     10 OP33        4.1900    0.5980   -2.0450 O.2       1 PNP1        0.0000
     11 OP34        4.8030   -0.4210    0.2220 O.3       1 PNP1        0.0000
     12 C14         1.6060    2.5550    0.9740 C.3       1 PNP1        0.0000
     13 H4          2.1010    2.4520    1.9740 H         1 PNP1        0.0000
     14 O4          1.8820    3.8640    0.4870 O.3       1 PNP1        0.0000
     15 HO4         2.7840    3.7500    0.1500 H         1 PNP1        0.0000
     16 C15         0.1150    2.3170    1.2140 C.3       1 PNP1        0.0000
     17 H5         -0.3800    2.6930    0.2820 H         1 PNP1        0.0000
     18 O5         -0.4290    3.0800    2.2950 O.3       1 PNP1        0.0000
     19 HO5        -1.3060    2.7000    2.4240 H         1 PNP1        0.0000
     20 C16        -0.3120    0.8610    1.3390 C.3       1 PNP1        0.0000
     21 H6         -0.0080    0.5220    2.3600 H         1 PNP1        0.0000
     22 O6         -1.7300    0.7560    1.2180 O.3       1 PNP1        0.0000
     23 HO6        -1.8700   -0.2000    1.1720 H         1 PNP1        0.0000
     24 C11         0.3490   -0.0390    0.3170 C.3       1 PNP1        0.0000
     25 H1          0.0440    0.3630   -0.6820 H         1 PNP1        0.0000
     26 P          -0.1930   -2.4470    1.5850 P.3       1 PNP1        0.0000
     27 O13        -0.6270   -1.7600    2.8230 O.3       1 PNP1        0.0000
     28 O14         0.9310   -3.4050    1.6540 O.2       1 PNP1        0.0000
     29 O12        -0.0790   -1.4080    0.3120 O.3       1 PNP1        0.0000
     30 O11        -1.4620   -3.2960    1.1310 O.3       1 PNP1        0.0000
     31 C1         -1.9480   -4.3410    1.9860 C.3       1 PNP1        0.0000
     32 HA         -2.9950   -4.1130    2.2820 H         1 PNP1        0.0000
     33 HB         -1.3600   -4.4470    2.9330 H         1 PNP1        0.0000
     34 C2         -1.9240   -5.7150    1.2690 C.3       1 PNP1        0.0000
     35 HS         -2.7200   -5.6920    0.4870 H         1 PNP1        0.0000
     36 O21        -2.1690   -6.7180    2.2780 O.3       1 PNP1        0.0000
     37 C21        -2.7530   -7.8250    1.8610 C.2       1 PNP1        0.0000
     38 O22        -3.2040   -8.0340    0.7520 O.2       1 PNP1        0.0000
     39 C22        -2.7880   -8.8230    3.0240 C.3       1 PNP1        0.0000
     40 H2R        -3.2750   -8.3220    3.8860 H         1 PNP1        0.0000
     41 H2S        -1.7400   -9.0610    3.2960 H         1 PNP1        0.0000
     42 C3         -0.5560   -5.9730    0.5610 C.3       1 PNP1        0.0000
     43 HX          0.2350   -5.8860    1.3400 H         1 PNP1        0.0000
     44 HY         -0.3600   -5.1560   -0.1720 H         1 PNP1        0.0000
     45 O31        -0.4750   -7.2860   -0.0420 O.3       1 PNP1        0.0000
     46 C31        -1.0290   -7.3810   -1.2490 C.2       1 PNP1        0.0000
     47 O32        -1.5030   -6.4740   -1.8940 O.2       1 PNP1        0.0000
     48 C32        -0.9790   -8.8490   -1.6890 C.3       1 PNP1        0.0000
     49 H2X        -1.5460   -9.4350   -0.9360 H         1 PNP1        0.0000
     50 H2Y         0.0790   -9.1780   -1.6780 H         1 PNP1        0.0000
     51 C23        -3.5520  -10.1180    2.6630 C.3       1 PNP1        0.0000
     52 H3R        -3.0400  -10.6300    1.8160 H         1 PNP1        0.0000
     53 H3S        -4.5810   -9.8600    2.3230 H         1 PNP1        0.0000
     54 C24        -3.6620  -11.0970    3.8430 C.3       1 PNP1        0.0000
     55 H4R        -4.1730  -10.5900    4.6920 H         1 PNP1        0.0000
     56 H4S        -2.6410  -11.3810    4.1820 H         1 PNP1        0.0000
     57 C25        -4.4440  -12.3680    3.4750 C.3       1 PNP1        0.0000
     58 H5R        -3.9310  -12.8740    2.6260 H         1 PNP1        0.0000
     59 H5S        -5.4620  -12.0770    3.1280 H         1 PNP1        0.0000
     60 C26        -4.5830  -13.3630    4.6370 C.3       1 PNP1        0.0000
     61 H6R        -5.1060  -12.8670    5.4850 H         1 PNP1        0.0000
     62 H6S        -3.5690  -13.6570    4.9890 H         1 PNP1        0.0000
     63 C27        -5.3620  -14.6260    4.2360 C.3       1 PNP1        0.0000
     64 H7R        -4.8480  -15.1000    3.3690 H         1 PNP1        0.0000
     65 H7S        -6.3810  -14.3230    3.9020 H         1 PNP1        0.0000
     66 C28        -5.4830  -15.6430    5.3860 C.3       1 PNP1        0.0000
     67 H8R        -5.9650  -15.1260    6.2460 H         1 PNP1        0.0000
     68 H8S        -4.4590  -15.9270    5.7150 H         1 PNP1        0.0000
     69 C29        -6.2470  -16.8780    4.9690 C.2       1 PNP1        0.0000
     70 H91        -5.8170  -17.4190    4.1110 H         1 PNP1        0.0000
     71 C210       -7.3810  -17.3460    5.5280 C.2       1 PNP1        0.0000
     72 H101       -7.8320  -18.2640    5.1180 H         1 PNP1        0.0000
     73 C211       -8.1170  -16.7510    6.7070 C.3       1 PNP1        0.0000
     74 H11R       -7.3860  -16.3180    7.4250 H         1 PNP1        0.0000
     75 H11S       -8.6220  -17.5700    7.2660 H         1 PNP1        0.0000
     76 C212       -9.1240  -15.6880    6.3320 C.2       1 PNP1        0.0000
     77 H121       -9.1650  -15.3950    5.2710 H         1 PNP1        0.0000
     78 C213       -9.9490  -15.0870    7.2080 C.2       1 PNP1        0.0000
     79 H131       -9.8990  -15.3710    8.2710 H         1 PNP1        0.0000
     80 C214      -10.9490  -14.0200    6.8250 C.3       1 PNP1        0.0000
     81 H14R      -11.6580  -14.4430    6.0780 H         1 PNP1        0.0000
     82 H14S      -10.4170  -13.1940    6.3020 H         1 PNP1        0.0000
     83 C215      -11.7370  -13.4450    7.9800 C.2       1 PNP1        0.0000
     84 H151      -11.4990  -13.8250    8.9870 H         1 PNP1        0.0000
     85 C216      -12.6970  -12.5130    7.8470 C.2       1 PNP1        0.0000
     86 H161      -12.9430  -12.1270    6.8450 H         1 PNP1        0.0000
     87 C217      -13.4870  -11.9410    8.9970 C.3       1 PNP1        0.0000
     88 H17R      -12.8010  -11.4680    9.7360 H         1 PNP1        0.0000
     89 H17S      -14.0290  -12.7540    9.5310 H         1 PNP1        0.0000
     90 C218      -14.5140  -10.8910    8.5440 C.3       1 PNP1        0.0000
     91 H18R      -15.2520  -11.3320    7.8400 H         1 PNP1        0.0000
     92 H18S      -14.0140  -10.0330    8.0440 H         1 PNP1        0.0000
     93 H18T      -15.0700  -10.4990    9.4230 H         1 PNP1        0.0000
     94 C33        -1.6000   -9.0640   -3.0880 C.3       1 PNP1        0.0000
     95 H3X        -1.0020   -8.5150   -3.8500 H         1 PNP1        0.0000
     96 H3Y        -2.6310   -8.6400   -3.1030 H         1 PNP1        0.0000
     97 C34        -1.6810  -10.5460   -3.4800 C.3       1 PNP1        0.0000
     98 H4X        -2.3040  -11.0850   -2.7310 H         1 PNP1        0.0000
     99 H4Y        -0.6610  -10.9900   -3.4560 H         1 PNP1        0.0000
    100 C35        -2.2870  -10.7520   -4.8770 C.3       1 PNP1        0.0000
    101 H5X        -1.6540  -10.2260   -5.6260 H         1 PNP1        0.0000
    102 H5Y        -3.2990  -10.2890   -4.9050 H         1 PNP1        0.0000
    103 C36        -2.4040  -12.2320   -5.2680 C.3       1 PNP1        0.0000
    104 H6X        -3.0520  -12.7550   -4.5290 H         1 PNP1        0.0000
    105 H6Y        -1.3950  -12.7000   -5.2250 H         1 PNP1        0.0000
    106 C37        -2.9860  -12.4320   -6.6760 C.3       1 PNP1        0.0000
    107 H7X        -2.3420  -11.9040   -7.4140 H         1 PNP1        0.0000
    108 H7Y        -3.9990  -11.9730   -6.7220 H         1 PNP1        0.0000
    109 C38        -3.0850  -13.9130   -7.0650 C.3       1 PNP1        0.0000
    110 H8X        -3.7410  -14.4390   -6.3360 H         1 PNP1        0.0000
    111 H8Y        -2.0720  -14.3720   -7.0010 H         1 PNP1        0.0000
    112 C39        -3.6380  -14.1270   -8.4810 C.3       1 PNP1        0.0000
    113 H9X        -2.9860  -13.5960   -9.2110 H         1 PNP1        0.0000
    114 H9Y        -4.6560  -13.6820   -8.5500 H         1 PNP1        0.0000
    115 C310       -3.7090  -15.6120   -8.8610 C.3       1 PNP1        0.0000
    116 H10X       -4.3680  -16.1420   -8.1370 H         1 PNP1        0.0000
    117 H10Y       -2.6910  -16.0570   -8.7790 H         1 PNP1        0.0000
    118 C311       -4.2390  -15.8390  -10.2820 C.3       1 PNP1        0.0000
    119 H11X       -3.5820  -15.3060  -11.0060 H         1 PNP1        0.0000
    120 H11Y       -5.2600  -15.4040  -10.3670 H         1 PNP1        0.0000
    121 C312       -4.2920  -17.3260  -10.6570 C.3       1 PNP1        0.0000
    122 H12X       -4.9520  -17.8610   -9.9370 H         1 PNP1        0.0000
    123 H12Y       -3.2710  -17.7610  -10.5660 H         1 PNP1        0.0000
    124 C313       -4.8100  -17.5580  -12.0820 C.3       1 PNP1        0.0000
    125 H13X       -4.1510  -17.0210  -12.8000 H         1 PNP1        0.0000
    126 H13Y       -5.8320  -17.1270  -12.1730 H         1 PNP1        0.0000
    127 C314       -4.8560  -19.0450  -12.4560 C.3       1 PNP1        0.0000
    128 H14X       -5.5150  -19.5820  -11.7380 H         1 PNP1        0.0000
    129 H14Y       -3.8330  -19.4760  -12.3630 H         1 PNP1        0.0000
    130 C315       -5.3700  -19.2790  -13.8820 C.3       1 PNP1        0.0000
    131 H15X       -4.7100  -18.7340  -14.5950 H         1 PNP1        0.0000
    132 H15Y       -6.3900  -18.8420  -13.9710 H         1 PNP1        0.0000
    133 C316       -5.4190  -20.7590  -14.2710 C.3       1 PNP1        0.0000
    134 H16X       -6.0920  -21.3180  -13.5850 H         1 PNP1        0.0000
    135 H16Y       -4.4050  -21.2100  -14.2110 H         1 PNP1        0.0000
    136 H16Z       -5.7970  -20.8780  -15.3090 H         1 PNP1        0.0000
@<TRIPOS>BOND
     1  136  133 1 
     2  131  130 1 
     3  133  135 1 
     4  133  130 1 
     5  133  134 1 
     6  132  130 1 
     7  130  127 1 
     8  125  124 1 
     9  127  129 1 
    10  127  124 1 
    11  127  128 1 
    12  126  124 1 
    13  124  121 1 
    14  119  118 1 
    15  121  123 1 
    16  121  118 1 
    17  121  122 1 
    18  120  118 1 
    19  118  115 1 
    20  113  112 1 
    21  115  117 1 
    22  115  112 1 
    23  115  116 1 
    24  114  112 1 
    25  112  109 1 
    26  107  106 1 
    27  109  111 1 
    28  109  106 1 
    29  109  110 1 
    30  108  106 1 
    31  106  103 1 
    32  101  100 1 
    33  103  105 1 
    34  103  100 1 
    35  103  104 1 
    36  102  100 1 
    37  100   97 1 
    38   95   94 1 
    39   97   99 1 
    40   97   94 1 
    41   97   98 1 
    42   96   94 1 
    43   94   48 1 
    44   10    8 2 
    45   47   46 2 
    46   48   50 1 
    47   48   46 1 
    48   48   49 1 
    49   46   45 1 
    50    6    5 1 
    51   25   24 1 
    52    9    8 1 
    53    8    7 1 
    54    8   11 1 
    55    2    1 1 
    56   44   42 1 
    57   45   42 1 
    58    5    7 1 
    59    5    1 1 
    60    5   12 1 
    61   15   14 1 
    62   17   16 1 
    63   29   24 1 
    64   29   26 1 
    65   24    1 1 
    66   24   20 1 
    67    1    3 1 
    68   35   34 1 
    69   14   12 1 
    70   42   34 1 
    71   42   43 1 
    72   38   37 2 
    73   12   16 1 
    74   12   13 1 
    75   30   26 1 
    76   30   31 1 
    77   23   22 1 
    78   16   20 1 
    79   16   18 1 
    80   22   20 1 
    81   34   31 1 
    82   34   36 1 
    83    4    3 1 
    84   20   21 1 
    85   26   28 2 
    86   26   27 1 
    87   52   51 1 
    88   37   36 1 
    89   37   39 1 
    90   31   32 1 
    91   31   33 1 
    92   18   19 1 
    93   53   51 1 
    94   58   57 1 
    95   51   39 1 
    96   51   54 1 
    97   39   41 1 
    98   39   40 1 
    99   59   57 1 
   100   64   63 1 
   101   57   54 1 
   102   57   60 1 
   103   54   56 1 
   104   54   55 1 
   105   65   63 1 
   106   70   69 1 
   107   63   60 1 
   108   63   66 1 
   109   60   62 1 
   110   60   61 1 
   111   69   66 1 
   112   69   71 2 
   113   72   71 1 
   114   77   76 1 
   115   66   68 1 
   116   66   67 1 
   117   71   73 1 
   118   81   80 1 
   119   82   80 1 
   120   76   73 1 
   121   76   78 2 
   122   73   75 1 
   123   73   74 1 
   124   80   78 1 
   125   80   83 1 
   126   86   85 1 
   127   78   79 1 
   128   91   90 1 
   129   85   83 2 
   130   85   87 1 
   131   83   84 1 
   132   92   90 1 
   133   90   87 1 
   134   90   93 1 
   135   87   89 1 
   136   87   88 1 
