@<TRIPOS>MOLECULE
C:\Users\Praveer\PycharmProjects\pdb_to_mol2_converter\data\pdb\pnpi2a.pdb
  140   140     0     0     0
SMALL
GASTEIGER

@<TRIPOS>ATOM
      1 C12         1.6930    0.0790    0.3030 C.3       1 PNP1        0.0000
      2 H2          2.1160   -0.5890   -0.4840 H         1 PNP1        0.0000
      3 O2          2.2060   -0.3820    1.5540 O.3       1 PNP1        0.0000
      4 HO2         1.9940   -1.3240    1.6070 H         1 PNP1        0.0000
      5 C13         2.1330    1.4930   -0.0320 C.3       1 PNP1        0.0000
      6 H3          1.6470    1.7670   -1.0110 H         1 PNP1        0.0000
      7 O3          3.5740    1.5460   -0.1100 O.3       1 PNP1        0.0000
      8 P3          4.3060    1.6320   -1.5670 P.3       1 PNP1        0.0000
      9 OP32        4.0080    3.1830   -1.7300 O.3       1 PNP1        0.0000
     10 HP32        3.3620    3.3960   -1.0360 H         1 PNP1        0.0000
     11 OP33        5.8070    1.3970   -1.4450 O.3       1 PNP1        0.0000
     12 OP34        3.5240    0.8390   -2.6010 O.2       1 PNP1        0.0000
     13 C14         1.5710    2.4800    0.9860 C.3       1 PNP1        0.0000
     14 H4          2.1250    2.2970    1.9450 H         1 PNP1        0.0000
     15 O4          1.7750    3.8430    0.6140 O.3       1 PNP1        0.0000
     16 HO4         0.9820    4.3170    0.9580 H         1 PNP1        0.0000
     17 C15         0.0880    2.2920    1.2900 C.3       1 PNP1        0.0000
     18 H5         -0.3980    2.8070    0.4060 H         1 PNP1        0.0000
     19 O5         -0.2540    2.9230    2.5400 O.3       1 PNP1        0.0000
     20 P5         -1.3490    4.1550    2.4940 P.3       1 PNP1        0.0000
     21 OP52       -0.6600    5.2010    1.6170 O.2       1 PNP1        0.0000
     22 OP53       -2.5830    3.5250    1.8530 O.3       1 PNP1        0.0000
     23 OP54       -1.5610    4.5990    3.9300 O.3       1 PNP1        0.0000
     24 C16        -0.5190    0.8950    1.2130 C.3       1 PNP1        0.0000
     25 H6         -0.3870    0.4490    2.2270 H         1 PNP1        0.0000
     26 O6         -1.9200    1.0190    0.9830 O.3       1 PNP1        0.0000
     27 HO6        -2.1690    1.9000    1.3560 H         1 PNP1        0.0000
     28 C11         0.1730   -0.0260    0.2150 C.3       1 PNP1        0.0000
     29 H1         -0.0950    0.3960   -0.7890 H         1 PNP1        0.0000
     30 P          -0.2470   -2.4600    1.4000 P.3       1 PNP1        0.0000
     31 O13        -0.6930   -1.9370    2.7060 O.3       1 PNP1        0.0000
     32 O14         1.0840   -3.1140    1.3740 O.2       1 PNP1        0.0000
     33 O12        -0.3160   -1.3700    0.1790 O.3       1 PNP1        0.0000
     34 O11        -1.3230   -3.5240    0.9320 O.3       1 PNP1        0.0000
     35 C1         -1.7840   -4.5130    1.8510 C.3       1 PNP1        0.0000
     36 HA         -2.8110   -4.2600    2.1930 H         1 PNP1        0.0000
     37 HB         -1.1410   -4.6040    2.7620 H         1 PNP1        0.0000
     38 C2         -1.7930   -5.8790    1.1440 C.3       1 PNP1        0.0000
     39 HS         -2.5950   -5.8420    0.3670 H         1 PNP1        0.0000
     40 O21        -2.0320   -6.8800    2.1520 O.3       1 PNP1        0.0000
     41 C21        -2.6640   -7.9540    1.7350 C.2       1 PNP1        0.0000
     42 O22        -3.1220   -8.1440    0.6160 O.2       1 PNP1        0.0000
     43 C22        -2.7530   -8.9470    2.8890 C.3       1 PNP1        0.0000
     44 H2R        -3.2490   -8.4360    3.7390 H         1 PNP1        0.0000
     45 H2S        -1.7190   -9.2160    3.1890 H         1 PNP1        0.0000
     46 C3         -0.4300   -6.1250    0.4290 C.3       1 PNP1        0.0000
     47 HX          0.3640   -6.0650    1.2060 H         1 PNP1        0.0000
     48 HY         -0.2270   -5.2890   -0.2820 H         1 PNP1        0.0000
     49 O31        -0.3670   -7.4200   -0.2080 O.3       1 PNP1        0.0000
     50 C31        -0.9420   -7.4640   -1.4040 C.2       1 PNP1        0.0000
     51 O32        -1.3940   -6.5130   -2.0210 O.2       1 PNP1        0.0000
     52 C32        -0.9530   -8.9070   -1.8890 C.3       1 PNP1        0.0000
     53 H2X        -1.5430   -9.4960   -1.1560 H         1 PNP1        0.0000
     54 H2Y         0.0910   -9.2810   -1.8980 H         1 PNP1        0.0000
     55 C23        -3.5410  -10.2100    2.4880 C.3       1 PNP1        0.0000
     56 H3R        -3.0350  -10.7090    1.6300 H         1 PNP1        0.0000
     57 H3S        -4.5640   -9.9200    2.1500 H         1 PNP1        0.0000
     58 C24        -3.6710  -11.2140    3.6380 C.3       1 PNP1        0.0000
     59 H4R        -4.1880  -10.7270    4.4960 H         1 PNP1        0.0000
     60 H4S        -2.6560  -11.5150    3.9800 H         1 PNP1        0.0000
     61 C25        -4.4550  -12.4630    3.2180 C.3       1 PNP1        0.0000
     62 H5R        -3.9390  -12.9410    2.3550 H         1 PNP1        0.0000
     63 H5S        -5.4700  -12.1570    2.8750 H         1 PNP1        0.0000
     64 C26        -4.5960  -13.4870    4.3490 C.3       1 PNP1        0.0000
     65 H6R        -5.1200  -13.0130    5.2090 H         1 PNP1        0.0000
     66 H6S        -3.5820  -13.7890    4.6950 H         1 PNP1        0.0000
     67 C27        -5.3730  -14.7370    3.9120 C.3       1 PNP1        0.0000
     68 H7R        -4.8550  -15.1900    3.0370 H         1 PNP1        0.0000
     69 H7S        -6.3910  -14.4250    3.5830 H         1 PNP1        0.0000
     70 C28        -5.4910  -15.7740    5.0430 C.3       1 PNP1        0.0000
     71 H8R        -5.9670  -15.2710    5.9140 H         1 PNP1        0.0000
     72 H8S        -4.4660  -16.0670    5.3610 H         1 PNP1        0.0000
     73 C29        -6.2630  -16.9940    4.6010 C.2       1 PNP1        0.0000
     74 H91        -5.8380  -17.5140    3.7290 H         1 PNP1        0.0000
     75 C210       -7.3970  -17.4680    5.1540 C.2       1 PNP1        0.0000
     76 H101       -7.8550  -18.3710    4.7210 H         1 PNP1        0.0000
     77 C211       -8.1270  -16.8950    6.3460 C.3       1 PNP1        0.0000
     78 H11R       -7.3930  -16.4770    7.0720 H         1 PNP1        0.0000
     79 H11S       -8.6360  -17.7240    6.8870 H         1 PNP1        0.0000
     80 C212       -9.1300  -15.8230    5.9910 C.2       1 PNP1        0.0000
     81 H121       -9.1720  -15.5090    4.9360 H         1 PNP1        0.0000
     82 C213       -9.9530  -15.2380    6.8760 C.2       1 PNP1        0.0000
     83 H131       -9.9010  -15.5440    7.9320 H         1 PNP1        0.0000
     84 C214      -10.9510  -14.1640    6.5130 C.3       1 PNP1        0.0000
     85 H14R      -11.6630  -14.5720    5.7590 H         1 PNP1        0.0000
     86 H14S      -10.4180  -13.3250    6.0100 H         1 PNP1        0.0000
     87 C215      -11.7340  -13.6190    7.6850 C.2       1 PNP1        0.0000
     88 H151      -11.4960  -14.0190    8.6830 H         1 PNP1        0.0000
     89 C216      -12.6940  -12.6870    7.5760 C.2       1 PNP1        0.0000
     90 H161      -12.9410  -12.2790    6.5840 H         1 PNP1        0.0000
     91 C217      -13.4810  -12.1410    8.7390 C.3       1 PNP1        0.0000
     92 H17R      -12.7960  -11.6800    9.4870 H         1 PNP1        0.0000
     93 H17S      -14.0270  -12.9650    9.2550 H         1 PNP1        0.0000
     94 C218      -14.5030  -11.0840    8.2950 C.3       1 PNP1        0.0000
     95 H18R      -15.2410  -11.5120    7.5820 H         1 PNP1        0.0000
     96 H18S      -14.0010  -10.2160    7.8150 H         1 PNP1        0.0000
     97 H18T      -15.0640  -10.7050    9.1750 H         1 PNP1        0.0000
     98 C33        -1.5860   -9.0380   -3.2890 C.3       1 PNP1        0.0000
     99 H3X        -0.9800   -8.4710   -4.0330 H         1 PNP1        0.0000
    100 H3Y        -2.6080   -8.5930   -3.2820 H         1 PNP1        0.0000
    101 C34        -1.6930  -10.5000   -3.7300 C.3       1 PNP1        0.0000
    102 H4X        -2.3240  -11.0530   -2.9980 H         1 PNP1        0.0000
    103 H4Y        -0.6800  -10.9610   -3.7210 H         1 PNP1        0.0000
    104 C35        -2.3000  -10.6490   -5.1290 C.3       1 PNP1        0.0000
    105 H5X        -1.6650  -10.1030   -5.8630 H         1 PNP1        0.0000
    106 H5Y        -3.3110  -10.1810   -5.1420 H         1 PNP1        0.0000
    107 C36        -2.4160  -12.1170   -5.5520 C.3       1 PNP1        0.0000
    108 H6X        -3.0640  -12.6560   -4.8250 H         1 PNP1        0.0000
    109 H6Y        -1.4070  -12.5850   -5.5170 H         1 PNP1        0.0000
    110 C37        -2.9960  -12.2830   -6.9620 C.3       1 PNP1        0.0000
    111 H7X        -2.3500  -11.7390   -7.6880 H         1 PNP1        0.0000
    112 H7Y        -4.0090  -11.8240   -6.9990 H         1 PNP1        0.0000
    113 C38        -3.0890  -13.7560   -7.3750 C.3       1 PNP1        0.0000
    114 H8X        -3.7440  -14.2960   -6.6540 H         1 PNP1        0.0000
    115 H8Y        -2.0750  -14.2130   -7.3180 H         1 PNP1        0.0000
    116 C39        -3.6400  -13.9400   -8.7930 C.3       1 PNP1        0.0000
    117 H9X        -2.9880  -13.3940   -9.5110 H         1 PNP1        0.0000
    118 H9Y        -4.6580  -13.4940   -8.8520 H         1 PNP1        0.0000
    119 C310       -3.7090  -15.4170   -9.2000 C.3       1 PNP1        0.0000
    120 H10X       -4.3680  -15.9620   -8.4870 H         1 PNP1        0.0000
    121 H10Y       -2.6910  -15.8620   -9.1270 H         1 PNP1        0.0000
    122 C311       -4.2380  -15.6120  -10.6260 C.3       1 PNP1        0.0000
    123 H11X       -3.5810  -15.0620  -11.3360 H         1 PNP1        0.0000
    124 H11Y       -5.2590  -15.1740  -10.7000 H         1 PNP1        0.0000
    125 C312       -4.2910  -17.0900  -11.0320 C.3       1 PNP1        0.0000
    126 H12X       -4.9520  -17.6390  -10.3240 H         1 PNP1        0.0000
    127 H12Y       -3.2710  -17.5260  -10.9500 H         1 PNP1        0.0000
    128 C313       -4.8090  -17.2890  -12.4610 C.3       1 PNP1        0.0000
    129 H13X       -4.1500  -16.7360  -13.1680 H         1 PNP1        0.0000
    130 H13Y       -5.8310  -16.8560  -12.5430 H         1 PNP1        0.0000
    131 C314       -4.8550  -18.7670  -12.8680 C.3       1 PNP1        0.0000
    132 H14X       -5.5140  -19.3200  -12.1620 H         1 PNP1        0.0000
    133 H14Y       -3.8330  -19.2000  -12.7840 H         1 PNP1        0.0000
    134 C315       -5.3690  -18.9700  -14.2990 C.3       1 PNP1        0.0000
    135 H15X       -4.7090  -18.4090  -15.0000 H         1 PNP1        0.0000
    136 H15Y       -6.3900  -18.5310  -14.3780 H         1 PNP1        0.0000
    137 C316       -5.4190  -20.4410  -14.7200 C.3       1 PNP1        0.0000
    138 H16X       -6.0910  -21.0140  -14.0460 H         1 PNP1        0.0000
    139 H16Y       -4.4050  -20.8930  -14.6700 H         1 PNP1        0.0000
    140 H16Z       -5.7970  -20.5360  -15.7600 H         1 PNP1        0.0000
@<TRIPOS>BOND
     1  140  137 1 
     2  135  134 1 
     3  137  139 1 
     4  137  134 1 
     5  137  138 1 
     6  136  134 1 
     7  134  131 1 
     8  129  128 1 
     9  131  133 1 
    10  131  128 1 
    11  131  132 1 
    12  130  128 1 
    13  128  125 1 
    14  123  122 1 
    15  125  127 1 
    16  125  122 1 
    17  125  126 1 
    18  124  122 1 
    19  122  119 1 
    20  117  116 1 
    21  119  121 1 
    22  119  116 1 
    23  119  120 1 
    24  118  116 1 
    25  116  113 1 
    26  111  110 1 
    27  113  115 1 
    28  113  110 1 
    29  113  114 1 
    30  112  110 1 
    31  110  107 1 
    32  105  104 1 
    33  107  109 1 
    34  107  104 1 
    35  107  108 1 
    36  106  104 1 
    37  104  101 1 
    38   99   98 1 
    39  101  103 1 
    40  101   98 1 
    41  101  102 1 
    42   98  100 1 
    43   98   52 1 
    44   12    8 2 
    45   51   50 2 
    46   54   52 1 
    47   52   50 1 
    48   52   53 1 
    49    9    8 1 
    50    9   10 1 
    51    8   11 1 
    52    8    7 1 
    53   50   49 1 
    54    6    5 1 
    55   29   28 1 
    56    2    1 1 
    57   48   46 1 
    58   49   46 1 
    59    7    5 1 
    60    5    1 1 
    61    5   13 1 
    62   33   28 1 
    63   33   30 1 
    64   28    1 1 
    65   28   24 1 
    66    1    3 1 
    67   39   38 1 
    68   18   17 1 
    69   46   38 1 
    70   46   47 1 
    71   15   16 1 
    72   15   13 1 
    73   42   41 2 
    74   34   30 1 
    75   34   35 1 
    76   26   24 1 
    77   26   27 1 
    78   13   17 1 
    79   13   14 1 
    80   38   35 1 
    81   38   40 1 
    82   24   17 1 
    83   24   25 1 
    84   17   19 1 
    85   32   30 2 
    86   30   31 1 
    87    3    4 1 
    88   21   20 2 
    89   56   55 1 
    90   41   40 1 
    91   41   43 1 
    92   35   36 1 
    93   35   37 1 
    94   22   20 1 
    95   57   55 1 
    96   62   61 1 
    97   55   43 1 
    98   55   58 1 
    99   20   19 1 
   100   20   23 1 
   101   63   61 1 
   102   43   45 1 
   103   43   44 1 
   104   68   67 1 
   105   61   58 1 
   106   61   64 1 
   107   69   67 1 
   108   58   60 1 
   109   58   59 1 
   110   74   73 1 
   111   67   64 1 
   112   67   70 1 
   113   64   66 1 
   114   64   65 1 
   115   73   70 1 
   116   73   75 2 
   117   76   75 1 
   118   81   80 1 
   119   70   72 1 
   120   70   71 1 
   121   75   77 1 
   122   85   84 1 
   123   80   77 1 
   124   80   82 2 
   125   86   84 1 
   126   77   79 1 
   127   77   78 1 
   128   84   82 1 
   129   84   87 1 
   130   90   89 1 
   131   82   83 1 
   132   89   87 2 
   133   89   91 1 
   134   95   94 1 
   135   87   88 1 
   136   96   94 1 
   137   94   91 1 
   138   94   97 1 
   139   91   93 1 
   140   91   92 1 
