@<TRIPOS>MOLECULE
C:\Users\Praveer\PycharmProjects\pdb_to_mol2_converter\data\pdb\pnpi33.pdb
  143   143     0     0     0
SMALL
GASTEIGER

@<TRIPOS>ATOM
      1 C12         1.7370    0.2440    0.5100 C.3       1 PNP1        0.0000
      2 H2          2.3230   -0.5600    0.0000 H         1 PNP1        0.0000
      3 O2          1.9510    0.0820    1.9070 O.3       1 PNP1        0.0000
      4 HO2         1.5610    0.8780    2.2930 H         1 PNP1        0.0000
      5 C13         2.2590    1.5850    0.0240 C.3       1 PNP1        0.0000
      6 H3          1.9200    1.7110   -1.0380 H         1 PNP1        0.0000
      7 O3          3.6950    1.5490    0.1250 O.3       1 PNP1        0.0000
      8 P3          4.6080    1.1240   -1.1790 P.3       1 PNP1        0.0000
      9 OP32        4.9350    2.5180   -1.8610 O.3       1 PNP1        0.0000
     10 HP32        4.5700    3.2390   -1.2880 H         1 PNP1        0.0000
     11 OP33        5.9260    0.5120   -0.7060 O.3       1 PNP1        0.0000
     12 OP34        3.8070    0.2650   -2.1570 O.2       1 PNP1        0.0000
     13 C14         1.5890    2.7490    0.7990 C.3       1 PNP1        0.0000
     14 H4          2.1750    2.8810    1.7430 H         1 PNP1        0.0000
     15 O4          1.6100    3.9890    0.0830 O.3       1 PNP1        0.0000
     16 P4          2.7890    5.0060   -0.4930 P.3       1 PNP1        0.0000
     17 OP42        2.5830    6.3760    0.1540 O.3       1 PNP1        0.0000
     18 OP43        2.5650    5.0820   -2.0010 O.2       1 PNP1        0.0000
     19 OP44        4.1660    4.4440   -0.1540 O.3       1 PNP1        0.0000
     20 C15         0.0820    2.4480    1.2270 C.3       1 PNP1        0.0000
     21 H5         -0.5040    3.1130    0.5340 H         1 PNP1        0.0000
     22 O5         -0.2280    2.8780    2.5670 O.3       1 PNP1        0.0000
     23 P5         -1.7690    3.2670    3.1080 P.3       1 PNP1        0.0000
     24 OP52       -2.2480    4.5060    2.3600 O.2       1 PNP1        0.0000
     25 OP53       -2.6660    2.0620    2.8170 O.3       1 PNP1        0.0000
     26 OP54       -1.6310    3.5260    4.6060 O.3       1 PNP1        0.0000
     27 C16        -0.5370    1.0390    0.9400 C.3       1 PNP1        0.0000
     28 H6         -0.6180    0.5370    1.9380 H         1 PNP1        0.0000
     29 O6         -1.8880    1.1390    0.5030 O.3       1 PNP1        0.0000
     30 HO6        -2.3180    1.5220    1.3110 H         1 PNP1        0.0000
     31 C11         0.2870    0.0510    0.1290 C.3       1 PNP1        0.0000
     32 H1          0.1890    0.3800   -0.9340 H         1 PNP1        0.0000
     33 P          -0.0770   -2.4780    1.2910 P.3       1 PNP1        0.0000
     34 O13        -0.2490   -2.0160    2.6820 O.3       1 PNP1        0.0000
     35 O14         1.0600   -3.3940    1.0090 O.2       1 PNP1        0.0000
     36 O12        -0.1860   -1.3050    0.1460 O.3       1 PNP1        0.0000
     37 O11        -1.3720   -3.3550    0.9600 O.3       1 PNP1        0.0000
     38 C1         -1.7980   -4.3810    1.8650 C.3       1 PNP1        0.0000
     39 HA         -2.8080   -4.1210    2.2470 H         1 PNP1        0.0000
     40 HB         -1.1290   -4.4980    2.7550 H         1 PNP1        0.0000
     41 C2         -1.8580   -5.7530    1.1490 C.3       1 PNP1        0.0000
     42 HS         -2.6750   -5.6900    0.3900 H         1 PNP1        0.0000
     43 O21        -2.1080   -6.7620    2.1540 O.3       1 PNP1        0.0000
     44 C21        -2.7330   -7.8460    1.7380 C.2       1 PNP1        0.0000
     45 O22        -3.2160   -8.0270    0.6300 O.2       1 PNP1        0.0000
     46 C22        -2.7770   -8.8710    2.8750 C.3       1 PNP1        0.0000
     47 H2R        -3.2680   -8.3910    3.7460 H         1 PNP1        0.0000
     48 H2S        -1.7320   -9.1230    3.1490 H         1 PNP1        0.0000
     49 C3         -0.5220   -6.0390    0.3950 C.3       1 PNP1        0.0000
     50 HX          0.2980   -5.9640    1.1450 H         1 PNP1        0.0000
     51 HY         -0.3340   -5.2250   -0.3440 H         1 PNP1        0.0000
     52 O31        -0.4860   -7.3550   -0.2050 O.3       1 PNP1        0.0000
     53 C31        -1.0640   -7.4290   -1.4000 C.2       1 PNP1        0.0000
     54 O32        -1.5410   -6.5100   -2.0280 O.2       1 PNP1        0.0000
     55 C32        -1.0240   -8.8850   -1.8690 C.3       1 PNP1        0.0000
     56 H2X        -1.6170   -9.4870   -1.1490 H         1 PNP1        0.0000
     57 H2Y         0.0290   -9.2300   -1.8490 H         1 PNP1        0.0000
     58 C23        -3.5440  -10.1540    2.4740 C.3       1 PNP1        0.0000
     59 H3R        -3.0310  -10.6390    1.6120 H         1 PNP1        0.0000
     60 H3S        -4.5720   -9.8820    2.1410 H         1 PNP1        0.0000
     61 C24        -3.6580  -11.1710    3.6190 C.3       1 PNP1        0.0000
     62 H4R        -4.1730  -10.6930    4.4830 H         1 PNP1        0.0000
     63 H4S        -2.6380  -11.4660    3.9520 H         1 PNP1        0.0000
     64 C25        -4.4390  -12.4290    3.2060 C.3       1 PNP1        0.0000
     65 H5R        -3.9210  -12.9100    2.3460 H         1 PNP1        0.0000
     66 H5S        -5.4540  -12.1280    2.8630 H         1 PNP1        0.0000
     67 C26        -4.5830  -13.4560    4.3380 C.3       1 PNP1        0.0000
     68 H6R        -5.1060  -12.9820    5.1990 H         1 PNP1        0.0000
     69 H6S        -3.5710  -13.7640    4.6850 H         1 PNP1        0.0000
     70 C27        -5.3660  -14.7050    3.9040 C.3       1 PNP1        0.0000
     71 H7R        -4.8490  -15.1650    3.0320 H         1 PNP1        0.0000
     72 H7S        -6.3820  -14.3910    3.5710 H         1 PNP1        0.0000
     73 C28        -5.4960  -15.7420    5.0360 C.3       1 PNP1        0.0000
     74 H8R        -5.9790  -15.2360    5.9020 H         1 PNP1        0.0000
     75 H8S        -4.4740  -16.0350    5.3640 H         1 PNP1        0.0000
     76 C29        -6.2620  -16.9640    4.5950 C.2       1 PNP1        0.0000
     77 H91        -5.8430  -17.4850    3.7220 H         1 PNP1        0.0000
     78 C210       -7.3950  -17.4450    5.1530 C.2       1 PNP1        0.0000
     79 H101       -7.8570  -18.3430    4.7190 H         1 PNP1        0.0000
     80 C211       -8.1190  -16.8720    6.3450 C.3       1 PNP1        0.0000
     81 H11R       -7.3890  -16.4460    7.0680 H         1 PNP1        0.0000
     82 H11S       -8.6220  -17.6990    6.8950 H         1 PNP1        0.0000
     83 C212       -9.1260  -15.8090    5.9810 C.2       1 PNP1        0.0000
     84 H121       -9.1720  -15.4990    4.9240 H         1 PNP1        0.0000
     85 C213       -9.9460  -15.2280    6.8690 C.2       1 PNP1        0.0000
     86 H131       -9.8870  -15.5320    7.9250 H         1 PNP1        0.0000
     87 C214      -10.9520  -14.1640    6.5130 C.3       1 PNP1        0.0000
     88 H14R      -11.6620  -14.5740    5.7610 H         1 PNP1        0.0000
     89 H14S      -10.4310  -13.3230    6.0020 H         1 PNP1        0.0000
     90 C215      -11.7320  -13.6230    7.6850 C.2       1 PNP1        0.0000
     91 H151      -11.4920  -14.0280    8.6820 H         1 PNP1        0.0000
     92 C216      -12.6890  -12.6920    7.5750 C.2       1 PNP1        0.0000
     93 H161      -12.9380  -12.2810    6.5830 H         1 PNP1        0.0000
     94 C217      -13.4730  -12.1500    8.7400 C.3       1 PNP1        0.0000
     95 H17R      -12.7910  -11.6900    9.4890 H         1 PNP1        0.0000
     96 H17S      -14.0180  -12.9710    9.2590 H         1 PNP1        0.0000
     97 C218      -14.4900  -11.0960    8.2890 C.3       1 PNP1        0.0000
     98 H18R      -15.2200  -11.5330    7.5730 H         1 PNP1        0.0000
     99 H18S      -13.9770  -10.2360    7.8050 H         1 PNP1        0.0000
    100 H18T      -15.0540  -10.7120    9.1660 H         1 PNP1        0.0000
    101 C33        -1.6150   -9.0410   -3.2860 C.3       1 PNP1        0.0000
    102 H3X        -0.9980   -8.4720   -4.0170 H         1 PNP1        0.0000
    103 H3Y        -2.6430   -8.6090   -3.3100 H         1 PNP1        0.0000
    104 C34        -1.6980  -10.5060   -3.7240 C.3       1 PNP1        0.0000
    105 H4X        -2.3280  -11.0670   -2.9970 H         1 PNP1        0.0000
    106 H4Y        -0.6800  -10.9550   -3.7100 H         1 PNP1        0.0000
    107 C35        -2.2970  -10.6600   -5.1270 C.3       1 PNP1        0.0000
    108 H5X        -1.6590  -10.1150   -5.8590 H         1 PNP1        0.0000
    109 H5Y        -3.3080  -10.1940   -5.1470 H         1 PNP1        0.0000
    110 C36        -2.4120  -12.1280   -5.5520 C.3       1 PNP1        0.0000
    111 H6X        -3.0600  -12.6680   -4.8260 H         1 PNP1        0.0000
    112 H6Y        -1.4030  -12.5970   -5.5190 H         1 PNP1        0.0000
    113 C37        -2.9930  -12.2900   -6.9610 C.3       1 PNP1        0.0000
    114 H7X        -2.3480  -11.7460   -7.6870 H         1 PNP1        0.0000
    115 H7Y        -4.0060  -11.8300   -6.9970 H         1 PNP1        0.0000
    116 C38        -3.0890  -13.7620   -7.3770 C.3       1 PNP1        0.0000
    117 H8X        -3.7450  -14.3020   -6.6580 H         1 PNP1        0.0000
    118 H8Y        -2.0760  -14.2200   -7.3210 H         1 PNP1        0.0000
    119 C39        -3.6410  -13.9420   -8.7950 C.3       1 PNP1        0.0000
    120 H9X        -2.9890  -13.3950   -9.5130 H         1 PNP1        0.0000
    121 H9Y        -4.6590  -13.4950   -8.8530 H         1 PNP1        0.0000
    122 C310       -3.7110  -15.4180   -9.2030 C.3       1 PNP1        0.0000
    123 H10X       -4.3700  -15.9630   -8.4900 H         1 PNP1        0.0000
    124 H10Y       -2.6930  -15.8630   -9.1290 H         1 PNP1        0.0000
    125 C311       -4.2400  -15.6130  -10.6290 C.3       1 PNP1        0.0000
    126 H11X       -3.5820  -15.0630  -11.3390 H         1 PNP1        0.0000
    127 H11Y       -5.2610  -15.1750  -10.7030 H         1 PNP1        0.0000
    128 C312       -4.2920  -17.0910  -11.0340 C.3       1 PNP1        0.0000
    129 H12X       -4.9530  -17.6400  -10.3260 H         1 PNP1        0.0000
    130 H12Y       -3.2710  -17.5270  -10.9520 H         1 PNP1        0.0000
    131 C313       -4.8100  -17.2900  -12.4630 C.3       1 PNP1        0.0000
    132 H13X       -4.1500  -16.7380  -13.1700 H         1 PNP1        0.0000
    133 H13Y       -5.8320  -16.8570  -12.5450 H         1 PNP1        0.0000
    134 C314       -4.8550  -18.7690  -12.8700 C.3       1 PNP1        0.0000
    135 H14X       -5.5150  -19.3210  -12.1640 H         1 PNP1        0.0000
    136 H14Y       -3.8330  -19.2010  -12.7860 H         1 PNP1        0.0000
    137 C315       -5.3690  -18.9720  -14.3000 C.3       1 PNP1        0.0000
    138 H15X       -4.7090  -18.4120  -15.0020 H         1 PNP1        0.0000
    139 H15Y       -6.3900  -18.5330  -14.3800 H         1 PNP1        0.0000
    140 C316       -5.4190  -20.4420  -14.7210 C.3       1 PNP1        0.0000
    141 H16X       -6.0910  -21.0160  -14.0480 H         1 PNP1        0.0000
    142 H16Y       -4.4050  -20.8940  -14.6720 H         1 PNP1        0.0000
    143 H16Z       -5.7970  -20.5370  -15.7610 H         1 PNP1        0.0000
@<TRIPOS>BOND
     1  143  140 1 
     2  138  137 1 
     3  140  142 1 
     4  140  137 1 
     5  140  141 1 
     6  139  137 1 
     7  137  134 1 
     8  132  131 1 
     9  134  136 1 
    10  134  131 1 
    11  134  135 1 
    12  133  131 1 
    13  131  128 1 
    14  126  125 1 
    15  128  130 1 
    16  128  125 1 
    17  128  129 1 
    18  127  125 1 
    19  125  122 1 
    20  120  119 1 
    21  122  124 1 
    22  122  119 1 
    23  122  123 1 
    24  121  119 1 
    25  119  116 1 
    26  114  113 1 
    27  116  118 1 
    28  116  113 1 
    29  116  117 1 
    30  115  113 1 
    31  113  110 1 
    32  108  107 1 
    33  110  112 1 
    34  110  107 1 
    35  110  111 1 
    36  109  107 1 
    37  107  104 1 
    38  102  101 1 
    39  104  106 1 
    40  104  101 1 
    41  104  105 1 
    42  103  101 1 
    43  101   55 1 
    44   12    8 2 
    45   54   53 2 
    46   18   16 2 
    47   55   57 1 
    48   55   53 1 
    49   55   56 1 
    50    9   10 1 
    51    9    8 1 
    52   53   52 1 
    53    8   11 1 
    54    8    7 1 
    55    6    5 1 
    56   32   31 1 
    57   16   19 1 
    58   16   15 1 
    59   16   17 1 
    60   51   49 1 
    61   52   49 1 
    62    2    1 1 
    63    5    7 1 
    64    5    1 1 
    65    5   13 1 
    66   15   13 1 
    67   31   36 1 
    68   31    1 1 
    69   31   27 1 
    70   36   33 1 
    71   42   41 1 
    72   49   50 1 
    73   49   41 1 
    74   29   27 1 
    75   29   30 1 
    76    1    3 1 
    77   21   20 1 
    78   45   44 2 
    79   13   20 1 
    80   13   14 1 
    81   27   20 1 
    82   27   28 1 
    83   37   33 1 
    84   37   38 1 
    85   35   33 2 
    86   41   38 1 
    87   41   43 1 
    88   20   22 1 
    89   33   34 1 
    90   59   58 1 
    91   44   43 1 
    92   44   46 1 
    93   38   39 1 
    94   38   40 1 
    95    3    4 1 
    96   60   58 1 
    97   65   64 1 
    98   24   23 2 
    99   58   46 1 
   100   58   61 1 
   101   22   23 1 
   102   25   23 1 
   103   66   64 1 
   104   46   48 1 
   105   46   47 1 
   106   71   70 1 
   107   23   26 1 
   108   64   61 1 
   109   64   67 1 
   110   72   70 1 
   111   61   63 1 
   112   61   62 1 
   113   77   76 1 
   114   70   67 1 
   115   70   73 1 
   116   67   69 1 
   117   67   68 1 
   118   76   73 1 
   119   76   78 2 
   120   79   78 1 
   121   84   83 1 
   122   73   75 1 
   123   73   74 1 
   124   78   80 1 
   125   88   87 1 
   126   83   80 1 
   127   83   85 2 
   128   89   87 1 
   129   80   82 1 
   130   80   81 1 
   131   87   85 1 
   132   87   90 1 
   133   93   92 1 
   134   85   86 1 
   135   98   97 1 
   136   92   90 2 
   137   92   94 1 
   138   90   91 1 
   139   99   97 1 
   140   97   94 1 
   141   97  100 1 
   142   94   96 1 
   143   94   95 1 
