@<TRIPOS>MOLECULE
C:\Users\Praveer\PycharmProjects\pdb_to_mol2_converter\data\pdb\pnpi34.pdb
  143   143     0     0     0
SMALL
GASTEIGER

@<TRIPOS>ATOM
      1 C12         1.9100    0.2110    0.4250 C.3       1 PNP1        0.0000
      2 H2          2.3510   -0.4640   -0.3520 H         1 PNP1        0.0000
      3 O2          2.4140   -0.2310    1.6770 O.3       1 PNP1        0.0000
      4 HO2         3.3710   -0.3260    1.4640 H         1 PNP1        0.0000
      5 C13         2.3890    1.6360    0.1420 C.3       1 PNP1        0.0000
      6 H3          2.1030    1.8020   -0.9260 H         1 PNP1        0.0000
      7 O3          3.8170    1.8110    0.2270 O.3       1 PNP1        0.0000
      8 P3          4.9510    0.7580   -0.3470 P.3       1 PNP1        0.0000
      9 OP32        6.2800    1.5100   -0.3200 O.3       1 PNP1        0.0000
     10 OP33        4.5220    0.3830   -1.7590 O.2       1 PNP1        0.0000
     11 OP34        4.9250   -0.4170    0.6300 O.3       1 PNP1        0.0000
     12 C14         1.6420    2.7240    0.9610 C.3       1 PNP1        0.0000
     13 H4          2.1180    2.5990    1.9670 H         1 PNP1        0.0000
     14 O4          1.8890    4.0890    0.6050 O.3       1 PNP1        0.0000
     15 P4          2.2040    4.7420   -0.8550 P.3       1 PNP1        0.0000
     16 OP42        3.7300    4.3370   -1.0610 O.3       1 PNP1        0.0000
     17 HP42        3.8460    3.4100   -0.7810 H         1 PNP1        0.0000
     18 OP43        1.3660    4.1210   -1.9640 O.2       1 PNP1        0.0000
     19 OP44        2.1670    6.2680   -0.7640 O.3       1 PNP1        0.0000
     20 C15         0.1310    2.4940    1.3030 C.3       1 PNP1        0.0000
     21 H5         -0.3750    3.1110    0.5160 H         1 PNP1        0.0000
     22 O5         -0.2520    3.0330    2.5890 O.3       1 PNP1        0.0000
     23 P5         -1.7730    3.5880    3.0070 P.3       1 PNP1        0.0000
     24 OP52       -2.0020    4.9290    2.3180 O.2       1 PNP1        0.0000
     25 OP53       -2.7880    2.5390    2.5530 O.3       1 PNP1        0.0000
     26 OP54       -1.7520    3.7340    4.5280 O.3       1 PNP1        0.0000
     27 C16        -0.4290    1.0620    1.0960 C.3       1 PNP1        0.0000
     28 H6         -0.4670    0.6230    2.1240 H         1 PNP1        0.0000
     29 O6         -1.7800    1.1140    0.6460 O.3       1 PNP1        0.0000
     30 HO6        -2.2270    1.6620    1.3440 H         1 PNP1        0.0000
     31 C11         0.3990    0.0450    0.3030 C.3       1 PNP1        0.0000
     32 H1          0.2230    0.3830   -0.7510 H         1 PNP1        0.0000
     33 P          -0.1460   -2.4160    1.5320 P.3       1 PNP1        0.0000
     34 O13        -0.5350   -1.8560    2.8450 O.3       1 PNP1        0.0000
     35 O14         0.9870   -3.3760    1.5080 O.2       1 PNP1        0.0000
     36 O12        -0.0550   -1.3240    0.2990 O.3       1 PNP1        0.0000
     37 O11        -1.4010   -3.3040    1.0720 O.3       1 PNP1        0.0000
     38 C1         -1.9300   -4.3110    1.9460 C.3       1 PNP1        0.0000
     39 HA         -2.9690   -4.0330    2.2240 H         1 PNP1        0.0000
     40 HB         -1.3550   -4.4050    2.9000 H         1 PNP1        0.0000
     41 C2         -1.9460   -5.7050    1.2610 C.3       1 PNP1        0.0000
     42 HS         -2.7470   -5.6710    0.4840 H         1 PNP1        0.0000
     43 O21        -2.2080   -6.7020    2.2760 O.3       1 PNP1        0.0000
     44 C21        -2.7900   -7.8140    1.8670 C.2       1 PNP1        0.0000
     45 O22        -3.2490   -8.0260    0.7550 O.2       1 PNP1        0.0000
     46 C22        -2.8090   -8.8260    3.0220 C.3       1 PNP1        0.0000
     47 H2R        -3.2870   -8.3310    3.8910 H         1 PNP1        0.0000
     48 H2S        -1.7540   -9.0540    3.2780 H         1 PNP1        0.0000
     49 C3         -0.5880   -5.9890    0.5440 C.3       1 PNP1        0.0000
     50 HX          0.2110   -5.8890    1.3140 H         1 PNP1        0.0000
     51 HY         -0.3950   -5.1860   -0.2040 H         1 PNP1        0.0000
     52 O31        -0.5170   -7.3140   -0.0370 O.3       1 PNP1        0.0000
     53 C31        -1.0800   -7.4220   -1.2400 C.2       1 PNP1        0.0000
     54 O32        -1.5760   -6.5320   -1.8850 O.2       1 PNP1        0.0000
     55 C32        -0.9950   -8.8890   -1.6830 C.3       1 PNP1        0.0000
     56 H2X        -1.5510   -9.4900   -0.9340 H         1 PNP1        0.0000
     57 H2Y         0.0700   -9.1950   -1.6730 H         1 PNP1        0.0000
     58 C23        -3.5640  -10.1340    2.6710 C.3       1 PNP1        0.0000
     59 H3R        -3.0490  -10.6410    1.8230 H         1 PNP1        0.0000
     60 H3S        -4.5960   -9.8830    2.3310 H         1 PNP1        0.0000
     61 C24        -3.6730  -11.1220    3.8460 C.3       1 PNP1        0.0000
     62 H4R        -4.1820  -10.6210    4.7000 H         1 PNP1        0.0000
     63 H4S        -2.6520  -11.4100    4.1830 H         1 PNP1        0.0000
     64 C25        -4.4560  -12.3960    3.4800 C.3       1 PNP1        0.0000
     65 H5R        -3.9470  -12.9020    2.6300 H         1 PNP1        0.0000
     66 H5S        -5.4750  -12.1070    3.1370 H         1 PNP1        0.0000
     67 C26        -4.5920  -13.3940    4.6420 C.3       1 PNP1        0.0000
     68 H6R        -5.1150  -12.8990    5.4920 H         1 PNP1        0.0000
     69 H6S        -3.5780  -13.6870    4.9930 H         1 PNP1        0.0000
     70 C27        -5.3730  -14.6600    4.2480 C.3       1 PNP1        0.0000
     71 H7R        -4.8620  -15.1360    3.3810 H         1 PNP1        0.0000
     72 H7S        -6.3940  -14.3610    3.9200 H         1 PNP1        0.0000
     73 C28        -5.4860  -15.6790    5.3990 C.3       1 PNP1        0.0000
     74 H8R        -5.9490  -15.1630    6.2700 H         1 PNP1        0.0000
     75 H8S        -4.4590  -15.9710    5.7110 H         1 PNP1        0.0000
     76 C29        -6.2630  -16.9110    4.9950 C.2       1 PNP1        0.0000
     77 H91        -5.8400  -17.4600    4.1400 H         1 PNP1        0.0000
     78 C210       -7.3990  -17.3700    5.5590 C.2       1 PNP1        0.0000
     79 H101       -7.8520  -18.2900    5.1570 H         1 PNP1        0.0000
     80 C211       -8.1370  -16.7640    6.7300 C.3       1 PNP1        0.0000
     81 H11R       -7.4090  -16.3390    7.4560 H         1 PNP1        0.0000
     82 H11S       -8.6590  -17.5740    7.2860 H         1 PNP1        0.0000
     83 C212       -9.1250  -15.6910    6.3400 C.2       1 PNP1        0.0000
     84 H121       -9.1410  -15.3920    5.2800 H         1 PNP1        0.0000
     85 C213       -9.9660  -15.0890    7.1980 C.2       1 PNP1        0.0000
     86 H131       -9.9420  -15.3830    8.2580 H         1 PNP1        0.0000
     87 C214      -10.9490  -14.0120    6.8040 C.3       1 PNP1        0.0000
     88 H14R      -11.6580  -14.4230    6.0500 H         1 PNP1        0.0000
     89 H14S      -10.4060  -13.1880    6.2910 H         1 PNP1        0.0000
     90 C215      -11.7320  -13.4430    7.9640 C.2       1 PNP1        0.0000
     91 H151      -11.4880  -13.8250    8.9670 H         1 PNP1        0.0000
     92 C216      -12.6950  -12.5130    7.8420 C.2       1 PNP1        0.0000
     93 H161      -12.9450  -12.1240    6.8430 H         1 PNP1        0.0000
     94 C217      -13.4790  -11.9480    8.9980 C.3       1 PNP1        0.0000
     95 H17R      -12.7910  -11.4760    9.7360 H         1 PNP1        0.0000
     96 H17S      -14.0190  -12.7630    9.5310 H         1 PNP1        0.0000
     97 C218      -14.5070  -10.8980    8.5510 C.3       1 PNP1        0.0000
     98 H18R      -15.2450  -11.3370    7.8470 H         1 PNP1        0.0000
     99 H18S      -14.0090  -10.0390    8.0510 H         1 PNP1        0.0000
    100 H18T      -15.0630  -10.5070    9.4320 H         1 PNP1        0.0000
    101 C33        -1.6080   -9.1070   -3.0860 C.3       1 PNP1        0.0000
    102 H3X        -1.0130   -8.5490   -3.8440 H         1 PNP1        0.0000
    103 H3Y        -2.6430   -8.6940   -3.1030 H         1 PNP1        0.0000
    104 C34        -1.6740  -10.5880   -3.4840 C.3       1 PNP1        0.0000
    105 H4X        -2.2900  -11.1360   -2.7370 H         1 PNP1        0.0000
    106 H4Y        -0.6490  -11.0220   -3.4640 H         1 PNP1        0.0000
    107 C35        -2.2810  -10.7880   -4.8810 C.3       1 PNP1        0.0000
    108 H5X        -1.6480  -10.2600   -5.6290 H         1 PNP1        0.0000
    109 H5Y        -3.2920  -10.3230   -4.9060 H         1 PNP1        0.0000
    110 C36        -2.4020  -12.2650   -5.2780 C.3       1 PNP1        0.0000
    111 H6X        -3.0510  -12.7890   -4.5420 H         1 PNP1        0.0000
    112 H6Y        -1.3950  -12.7370   -5.2390 H         1 PNP1        0.0000
    113 C37        -2.9880  -12.4540   -6.6860 C.3       1 PNP1        0.0000
    114 H7X        -2.3430  -11.9230   -7.4220 H         1 PNP1        0.0000
    115 H7Y        -4.0000  -11.9920   -6.7270 H         1 PNP1        0.0000
    116 C38        -3.0910  -13.9330   -7.0840 C.3       1 PNP1        0.0000
    117 H8X        -3.7480  -14.4600   -6.3570 H         1 PNP1        0.0000
    118 H8Y        -2.0790  -14.3940   -7.0230 H         1 PNP1        0.0000
    119 C39        -3.6450  -14.1410   -8.5010 C.3       1 PNP1        0.0000
    120 H9X        -2.9930  -13.6090   -9.2300 H         1 PNP1        0.0000
    121 H9Y        -4.6630  -13.6950   -8.5680 H         1 PNP1        0.0000
    122 C310       -3.7160  -15.6260   -8.8820 C.3       1 PNP1        0.0000
    123 H10X       -4.3750  -16.1570   -8.1590 H         1 PNP1        0.0000
    124 H10Y       -2.6990  -16.0700   -8.8010 H         1 PNP1        0.0000
    125 C311       -4.2470  -15.8530  -10.3030 C.3       1 PNP1        0.0000
    126 H11X       -3.5910  -15.3200  -11.0280 H         1 PNP1        0.0000
    127 H11Y       -5.2680  -15.4190  -10.3880 H         1 PNP1        0.0000
    128 C312       -4.2990  -17.3400  -10.6750 C.3       1 PNP1        0.0000
    129 H12X       -4.9590  -17.8750   -9.9550 H         1 PNP1        0.0000
    130 H12Y       -3.2780  -17.7750  -10.5850 H         1 PNP1        0.0000
    131 C313       -4.8170  -17.5720  -12.1000 C.3       1 PNP1        0.0000
    132 H13X       -4.1580  -17.0360  -12.8190 H         1 PNP1        0.0000
    133 H13Y       -5.8400  -17.1420  -12.1910 H         1 PNP1        0.0000
    134 C314       -4.8620  -19.0600  -12.4720 C.3       1 PNP1        0.0000
    135 H14X       -5.5220  -19.5960  -11.7550 H         1 PNP1        0.0000
    136 H14Y       -3.8400  -19.4900  -12.3780 H         1 PNP1        0.0000
    137 C315       -5.3760  -19.2940  -13.8980 C.3       1 PNP1        0.0000
    138 H15X       -4.7150  -18.7490  -14.6110 H         1 PNP1        0.0000
    139 H15Y       -6.3960  -18.8560  -13.9880 H         1 PNP1        0.0000
    140 C316       -5.4240  -20.7730  -14.2850 C.3       1 PNP1        0.0000
    141 H16X       -6.0970  -21.3320  -13.5990 H         1 PNP1        0.0000
    142 H16Y       -4.4100  -21.2230  -14.2250 H         1 PNP1        0.0000
    143 H16Z       -5.8010  -20.8940  -15.3230 H         1 PNP1        0.0000
@<TRIPOS>BOND
     1  143  140 1 
     2  138  137 1 
     3  140  142 1 
     4  140  137 1 
     5  140  141 1 
     6  139  137 1 
     7  137  134 1 
     8  132  131 1 
     9  134  136 1 
    10  134  131 1 
    11  134  135 1 
    12  133  131 1 
    13  131  128 1 
    14  126  125 1 
    15  128  130 1 
    16  128  125 1 
    17  128  129 1 
    18  127  125 1 
    19  125  122 1 
    20  120  119 1 
    21  122  124 1 
    22  122  119 1 
    23  122  123 1 
    24  121  119 1 
    25  119  116 1 
    26  114  113 1 
    27  116  118 1 
    28  116  113 1 
    29  116  117 1 
    30  115  113 1 
    31  113  110 1 
    32  108  107 1 
    33  110  112 1 
    34  110  107 1 
    35  110  111 1 
    36  109  107 1 
    37  107  104 1 
    38  102  101 1 
    39  104  106 1 
    40  104  101 1 
    41  104  105 1 
    42  103  101 1 
    43  101   55 1 
    44   18   15 2 
    45   54   53 2 
    46   10    8 2 
    47   55   57 1 
    48   55   53 1 
    49   55   56 1 
    50   53   52 1 
    51   16   15 1 
    52   16   17 1 
    53    6    5 1 
    54   15   19 1 
    55   15   14 1 
    56   32   31 1 
    57    2    1 1 
    58    8    9 1 
    59    8    7 1 
    60    8   11 1 
    61   51   49 1 
    62   52   49 1 
    63    5    7 1 
    64    5    1 1 
    65    5   12 1 
    66   36   31 1 
    67   36   33 1 
    68   31    1 1 
    69   31   27 1 
    70    1    3 1 
    71   42   41 1 
    72   21   20 1 
    73   49   41 1 
    74   49   50 1 
    75   14   12 1 
    76   29   27 1 
    77   29   30 1 
    78   45   44 2 
    79   12   20 1 
    80   12   13 1 
    81   37   33 1 
    82   37   38 1 
    83   27   20 1 
    84   27   28 1 
    85   41   38 1 
    86   41   43 1 
    87   20   22 1 
    88    4    3 1 
    89   35   33 2 
    90   33   34 1 
    91   59   58 1 
    92   44   43 1 
    93   44   46 1 
    94   38   39 1 
    95   38   40 1 
    96   24   23 2 
    97   60   58 1 
    98   25   23 1 
    99   22   23 1 
   100   65   64 1 
   101   58   46 1 
   102   58   61 1 
   103   23   26 1 
   104   46   48 1 
   105   46   47 1 
   106   66   64 1 
   107   71   70 1 
   108   64   61 1 
   109   64   67 1 
   110   61   63 1 
   111   61   62 1 
   112   72   70 1 
   113   77   76 1 
   114   70   67 1 
   115   70   73 1 
   116   67   69 1 
   117   67   68 1 
   118   76   73 1 
   119   76   78 2 
   120   79   78 1 
   121   84   83 1 
   122   73   75 1 
   123   73   74 1 
   124   78   80 1 
   125   88   87 1 
   126   89   87 1 
   127   83   80 1 
   128   83   85 2 
   129   80   82 1 
   130   80   81 1 
   131   87   85 1 
   132   87   90 1 
   133   93   92 1 
   134   85   86 1 
   135   92   90 2 
   136   92   94 1 
   137   98   97 1 
   138   90   91 1 
   139   99   97 1 
   140   97   94 1 
   141   97  100 1 
   142   94   96 1 
   143   94   95 1 
