@<TRIPOS>MOLECULE
C:\Users\Praveer\PycharmProjects\pdb_to_mol2_converter\data\pdb\pnpi14.pdb
  136   136     0     0     0
SMALL
GASTEIGER

@<TRIPOS>ATOM
      1 C12         1.6380    0.1650    0.1080 C.3       1 PNP1        0.0000
      2 H2          1.9250   -0.4130   -0.8030 H         1 PNP1        0.0000
      3 O2          2.2850   -0.4580    1.2210 O.3       1 PNP1        0.0000
      4 HO2         1.9700   -1.3800    1.2740 H         1 PNP1        0.0000
      5 C13         2.1020    1.6010   -0.1060 C.3       1 PNP1        0.0000
      6 H3          1.5850    2.0190   -1.0030 H         1 PNP1        0.0000
      7 O3          3.5020    1.6670   -0.3570 O.3       1 PNP1        0.0000
      8 HO3         3.6730    2.6030   -0.1680 H         1 PNP1        0.0000
      9 C14         1.7470    2.4580    1.0970 C.3       1 PNP1        0.0000
     10 H4          2.2040    1.9910    2.0020 H         1 PNP1        0.0000
     11 O4          2.3350    3.7600    0.9560 O.3       1 PNP1        0.0000
     12 P4          1.6520    5.0660    0.2400 P.3       1 PNP1        0.0000
     13 OP42        2.7600    6.1120    0.1890 O.3       1 PNP1        0.0000
     14 OP43        0.5020    5.4330    1.1720 O.3       1 PNP1        0.0000
     15 OP44        1.2000    4.5830   -1.1320 O.2       1 PNP1        0.0000
     16 C15         0.2320    2.4370    1.2920 C.3       1 PNP1        0.0000
     17 H5         -0.2180    2.9310    0.3920 H         1 PNP1        0.0000
     18 O5         -0.1480    3.2120    2.4240 O.3       1 PNP1        0.0000
     19 HO5         0.0890    4.1290    2.1200 H         1 PNP1        0.0000
     20 C16        -0.4080    1.0430    1.3260 C.3       1 PNP1        0.0000
     21 H6         -0.1410    0.5970    2.3140 H         1 PNP1        0.0000
     22 O6         -1.8260    1.1900    1.2630 O.3       1 PNP1        0.0000
     23 HO6        -1.9880    1.9990    1.7600 H         1 PNP1        0.0000
     24 C11         0.1160    0.1200    0.2280 C.3       1 PNP1        0.0000
     25 H1         -0.2450    0.6010   -0.7190 H         1 PNP1        0.0000
     26 P          -0.3420   -2.3060    1.4050 P.3       1 PNP1        0.0000
     27 O13        -0.9020   -1.8000    2.6750 O.3       1 PNP1        0.0000
     28 O14         1.0380   -2.8490    1.4450 O.2       1 PNP1        0.0000
     29 O12        -0.4290   -1.2050    0.1890 O.3       1 PNP1        0.0000
     30 O11        -1.2970   -3.4580    0.8830 O.3       1 PNP1        0.0000
     31 C1         -1.7840   -4.4400    1.8020 C.3       1 PNP1        0.0000
     32 HA         -2.8140   -4.1720    2.1230 H         1 PNP1        0.0000
     33 HB         -1.1510   -4.5290    2.7210 H         1 PNP1        0.0000
     34 C2         -1.7960   -5.8250    1.1180 C.3       1 PNP1        0.0000
     35 HS         -2.5900   -5.7930    0.3330 H         1 PNP1        0.0000
     36 O21        -2.0570   -6.8210    2.1310 O.3       1 PNP1        0.0000
     37 C21        -2.6550   -7.9200    1.7010 C.2       1 PNP1        0.0000
     38 O22        -3.0800   -8.1180    0.5780 O.2       1 PNP1        0.0000
     39 C22        -2.7430   -8.9250    2.8540 C.3       1 PNP1        0.0000
     40 H2R        -3.2350   -8.4180    3.7090 H         1 PNP1        0.0000
     41 H2S        -1.7070   -9.1940    3.1460 H         1 PNP1        0.0000
     42 C3         -0.4250   -6.0860    0.4200 C.3       1 PNP1        0.0000
     43 HX          0.3590   -6.0280    1.2080 H         1 PNP1        0.0000
     44 HY         -0.2090   -5.2560   -0.2930 H         1 PNP1        0.0000
     45 O31        -0.3590   -7.3820   -0.2170 O.3       1 PNP1        0.0000
     46 C31        -0.9290   -7.4280   -1.4200 C.2       1 PNP1        0.0000
     47 O32        -1.3720   -6.4790   -2.0390 O.2       1 PNP1        0.0000
     48 C32        -0.9390   -8.8760   -1.9030 C.3       1 PNP1        0.0000
     49 H2X        -1.5210   -9.4660   -1.1640 H         1 PNP1        0.0000
     50 H2Y         0.1060   -9.2460   -1.9150 H         1 PNP1        0.0000
     51 C23        -3.5320  -10.1970    2.4610 C.3       1 PNP1        0.0000
     52 H3R        -3.0270  -10.6980    1.6040 H         1 PNP1        0.0000
     53 H3S        -4.5540   -9.9100    2.1230 H         1 PNP1        0.0000
     54 C24        -3.6660  -11.2070    3.6120 C.3       1 PNP1        0.0000
     55 H4R        -4.1810  -10.7200    4.4700 H         1 PNP1        0.0000
     56 H4S        -2.6510  -11.5100    3.9540 H         1 PNP1        0.0000
     57 C25        -4.4530  -12.4630    3.2020 C.3       1 PNP1        0.0000
     58 H5R        -3.9390  -12.9450    2.3400 H         1 PNP1        0.0000
     59 H5S        -5.4690  -12.1580    2.8610 H         1 PNP1        0.0000
     60 C26        -4.5980  -13.4940    4.3320 C.3       1 PNP1        0.0000
     61 H6R        -5.1230  -13.0240    5.1940 H         1 PNP1        0.0000
     62 H6S        -3.5860  -13.8020    4.6780 H         1 PNP1        0.0000
     63 C27        -5.3780  -14.7440    3.8930 C.3       1 PNP1        0.0000
     64 H7R        -4.8650  -15.1960    3.0140 H         1 PNP1        0.0000
     65 H7S        -6.3980  -14.4330    3.5690 H         1 PNP1        0.0000
     66 C28        -5.4980  -15.7910    5.0170 C.3       1 PNP1        0.0000
     67 H8R        -5.9820  -15.2910    5.8860 H         1 PNP1        0.0000
     68 H8S        -4.4750  -16.0800    5.3440 H         1 PNP1        0.0000
     69 C29        -6.2600  -17.0170    4.5750 C.2       1 PNP1        0.0000
     70 H91        -5.8260  -17.5490    3.7130 H         1 PNP1        0.0000
     71 C210       -7.3970  -17.4890    5.1250 C.2       1 PNP1        0.0000
     72 H101       -7.8540  -18.3980    4.7010 H         1 PNP1        0.0000
     73 C211       -8.1240  -16.9040    6.3130 C.3       1 PNP1        0.0000
     74 H11R       -7.3880  -16.4780    7.0310 H         1 PNP1        0.0000
     75 H11S       -8.6280  -17.7250    6.8690 H         1 PNP1        0.0000
     76 C212       -9.1270  -15.8330    5.9580 C.2       1 PNP1        0.0000
     77 H121       -9.1660  -15.5110    4.9050 H         1 PNP1        0.0000
     78 C213       -9.9490  -15.2540    6.8510 C.2       1 PNP1        0.0000
     79 H131       -9.8950  -15.5670    7.9060 H         1 PNP1        0.0000
     80 C214      -10.9460  -14.1770    6.4960 C.3       1 PNP1        0.0000
     81 H14R      -11.6570  -14.5810    5.7400 H         1 PNP1        0.0000
     82 H14S      -10.4120  -13.3390    5.9950 H         1 PNP1        0.0000
     83 C215      -11.7340  -13.6280    7.6620 C.2       1 PNP1        0.0000
     84 H151      -11.5010  -14.0280    8.6620 H         1 PNP1        0.0000
     85 C216      -12.6930  -12.6930    7.5440 C.2       1 PNP1        0.0000
     86 H161      -12.9360  -12.2860    6.5500 H         1 PNP1        0.0000
     87 C217      -13.4820  -12.1520    8.7080 C.3       1 PNP1        0.0000
     88 H17R      -12.7940  -11.6990    9.4570 H         1 PNP1        0.0000
     89 H17S      -14.0210  -12.9810    9.2200 H         1 PNP1        0.0000
     90 C218      -14.5120  -11.0910    8.2880 C.3       1 PNP1        0.0000
     91 H18R      -15.2540  -11.5120    7.5760 H         1 PNP1        0.0000
     92 H18S      -14.0160  -10.2180    7.8100 H         1 PNP1        0.0000
     93 H18T      -15.0630  -10.7240    9.1810 H         1 PNP1        0.0000
     94 C33        -1.5790   -9.0160   -3.3000 C.3       1 PNP1        0.0000
     95 H3X        -0.9760   -8.4510   -4.0470 H         1 PNP1        0.0000
     96 H3Y        -2.6010   -8.5700   -3.2890 H         1 PNP1        0.0000
     97 C34        -1.6900  -10.4800   -3.7390 C.3       1 PNP1        0.0000
     98 H4X        -2.3230  -11.0300   -3.0060 H         1 PNP1        0.0000
     99 H4Y        -0.6780  -10.9430   -3.7290 H         1 PNP1        0.0000
    100 C35        -2.2980  -10.6330   -5.1390 C.3       1 PNP1        0.0000
    101 H5X        -1.6640  -10.0880   -5.8730 H         1 PNP1        0.0000
    102 H5Y        -3.3090  -10.1660   -5.1530 H         1 PNP1        0.0000
    103 C36        -2.4140  -12.1020   -5.5650 C.3       1 PNP1        0.0000
    104 H6X        -3.0630  -12.6410   -4.8390 H         1 PNP1        0.0000
    105 H6Y        -1.4050  -12.5700   -5.5300 H         1 PNP1        0.0000
    106 C37        -2.9930  -12.2690   -6.9760 C.3       1 PNP1        0.0000
    107 H7X        -2.3480  -11.7240   -7.7020 H         1 PNP1        0.0000
    108 H7Y        -4.0070  -11.8110   -7.0140 H         1 PNP1        0.0000
    109 C38        -3.0860  -13.7420   -7.3930 C.3       1 PNP1        0.0000
    110 H8X        -3.7420  -14.2840   -6.6740 H         1 PNP1        0.0000
    111 H8Y        -2.0730  -14.1990   -7.3370 H         1 PNP1        0.0000
    112 C39        -3.6380  -13.9250   -8.8120 C.3       1 PNP1        0.0000
    113 H9X        -2.9860  -13.3770   -9.5300 H         1 PNP1        0.0000
    114 H9Y        -4.6560  -13.4790   -8.8710 H         1 PNP1        0.0000
    115 C310       -3.7080  -15.4010   -9.2220 C.3       1 PNP1        0.0000
    116 H10X       -4.3670  -15.9470   -8.5110 H         1 PNP1        0.0000
    117 H10Y       -2.6900  -15.8460   -9.1500 H         1 PNP1        0.0000
    118 C311       -4.2380  -15.5930  -10.6480 C.3       1 PNP1        0.0000
    119 H11X       -3.5810  -15.0430  -11.3590 H         1 PNP1        0.0000
    120 H11Y       -5.2590  -15.1560  -10.7220 H         1 PNP1        0.0000
    121 C312       -4.2910  -17.0710  -11.0570 C.3       1 PNP1        0.0000
    122 H12X       -4.9510  -17.6210  -10.3500 H         1 PNP1        0.0000
    123 H12Y       -3.2700  -17.5080  -10.9760 H         1 PNP1        0.0000
    124 C313       -4.8090  -17.2670  -12.4860 C.3       1 PNP1        0.0000
    125 H13X       -4.1500  -16.7140  -13.1920 H         1 PNP1        0.0000
    126 H13Y       -5.8310  -16.8340  -12.5670 H         1 PNP1        0.0000
    127 C314       -4.8550  -18.7450  -12.8960 C.3       1 PNP1        0.0000
    128 H14X       -5.5150  -19.2980  -12.1910 H         1 PNP1        0.0000
    129 H14Y       -3.8330  -19.1780  -12.8120 H         1 PNP1        0.0000
    130 C315       -5.3690  -18.9450  -14.3260 C.3       1 PNP1        0.0000
    131 H15X       -4.7080  -18.3830  -15.0260 H         1 PNP1        0.0000
    132 H15Y       -6.3890  -18.5050  -14.4050 H         1 PNP1        0.0000
    133 C316       -5.4180  -20.4150  -14.7500 C.3       1 PNP1        0.0000
    134 H16X       -6.0910  -20.9900  -14.0770 H         1 PNP1        0.0000
    135 H16Y       -4.4040  -20.8670  -14.7010 H         1 PNP1        0.0000
    136 H16Z       -5.7960  -20.5100  -15.7900 H         1 PNP1        0.0000
@<TRIPOS>BOND
     1  136  133 1 
     2  131  130 1 
     3  133  135 1 
     4  133  130 1 
     5  133  134 1 
     6  132  130 1 
     7  130  127 1 
     8  125  124 1 
     9  127  129 1 
    10  127  124 1 
    11  127  128 1 
    12  126  124 1 
    13  124  121 1 
    14  119  118 1 
    15  121  123 1 
    16  121  118 1 
    17  121  122 1 
    18  120  118 1 
    19  118  115 1 
    20  113  112 1 
    21  115  117 1 
    22  115  112 1 
    23  115  116 1 
    24  114  112 1 
    25  112  109 1 
    26  107  106 1 
    27  109  111 1 
    28  109  106 1 
    29  109  110 1 
    30  108  106 1 
    31  106  103 1 
    32  101  100 1 
    33  103  105 1 
    34  103  100 1 
    35  103  104 1 
    36  102  100 1 
    37  100   97 1 
    38   95   94 1 
    39   97   99 1 
    40   97   94 1 
    41   97   98 1 
    42   94   96 1 
    43   94   48 1 
    44   47   46 2 
    45   50   48 1 
    46   48   46 1 
    47   48   49 1 
    48   46   45 1 
    49   15   12 2 
    50    6    5 1 
    51    2    1 1 
    52   25   24 1 
    53    7    8 1 
    54    7    5 1 
    55   44   42 1 
    56   45   42 1 
    57    5    1 1 
    58    5    9 1 
    59    1   24 1 
    60    1    3 1 
    61   13   12 1 
    62   29   24 1 
    63   29   26 1 
    64   24   20 1 
    65   12   11 1 
    66   12   14 1 
    67   35   34 1 
    68   17   16 1 
    69   42   34 1 
    70   42   43 1 
    71   38   37 2 
    72   30   26 1 
    73   30   31 1 
    74   11    9 1 
    75    9   16 1 
    76    9   10 1 
    77   34   31 1 
    78   34   36 1 
    79    3    4 1 
    80   22   20 1 
    81   22   23 1 
    82   16   20 1 
    83   16   18 1 
    84   20   21 1 
    85   26   28 2 
    86   26   27 1 
    87   52   51 1 
    88   37   36 1 
    89   37   39 1 
    90   31   32 1 
    91   31   33 1 
    92   19   18 1 
    93   53   51 1 
    94   58   57 1 
    95   51   39 1 
    96   51   54 1 
    97   39   41 1 
    98   39   40 1 
    99   59   57 1 
   100   64   63 1 
   101   57   54 1 
   102   57   60 1 
   103   65   63 1 
   104   54   56 1 
   105   54   55 1 
   106   70   69 1 
   107   63   60 1 
   108   63   66 1 
   109   60   62 1 
   110   60   61 1 
   111   69   66 1 
   112   69   71 2 
   113   72   71 1 
   114   77   76 1 
   115   66   68 1 
   116   66   67 1 
   117   71   73 1 
   118   81   80 1 
   119   76   73 1 
   120   76   78 2 
   121   82   80 1 
   122   73   75 1 
   123   73   74 1 
   124   80   78 1 
   125   80   83 1 
   126   86   85 1 
   127   78   79 1 
   128   85   83 2 
   129   85   87 1 
   130   91   90 1 
   131   83   84 1 
   132   92   90 1 
   133   90   87 1 
   134   90   93 1 
   135   87   89 1 
   136   87   88 1 
