@<TRIPOS>MOLECULE
C:\Users\Praveer\PycharmProjects\pdb_to_mol2_converter\data\pdb\pnpi2d.pdb
  140   140     0     0     0
SMALL
GASTEIGER

@<TRIPOS>ATOM
      1 C12         1.8860    0.0000    0.0930 C.3       1 PNP1        0.0000
      2 H2          2.1460   -0.6500   -0.7790 H         1 PNP1        0.0000
      3 O2          2.4370   -0.5750    1.2680 O.3       1 PNP1        0.0000
      4 HO2         3.3760   -0.3750    1.1470 H         1 PNP1        0.0000
      5 C13         2.5570    1.3700   -0.1080 C.3       1 PNP1        0.0000
      6 H3          2.2160    1.8120   -1.0760 H         1 PNP1        0.0000
      7 O3          3.9930    1.2200   -0.1500 O.3       1 PNP1        0.0000
      8 P3          4.8350    0.7830   -1.5240 P.3       1 PNP1        0.0000
      9 OP32        5.1490    2.0650   -2.2830 O.3       1 PNP1        0.0000
     10 OP33        6.0930    0.0850   -1.0180 O.3       1 PNP1        0.0000
     11 OP34        3.9310   -0.1550   -2.3260 O.2       1 PNP1        0.0000
     12 C14         2.1110    2.3550    0.9870 C.3       1 PNP1        0.0000
     13 H4          2.5560    1.9300    1.9290 H         1 PNP1        0.0000
     14 O4          2.6950    3.6560    0.8150 O.3       1 PNP1        0.0000
     15 P4          2.0640    4.9240   -0.0160 P.3       1 PNP1        0.0000
     16 OP42        1.3060    5.6500    1.2010 O.3       1 PNP1        0.0000
     17 HP42        1.5940    6.5730    1.1740 H         1 PNP1        0.0000
     18 OP43        1.0230    4.5600   -1.0470 O.2       1 PNP1        0.0000
     19 OP44        3.1250    5.9590   -0.4000 O.3       1 PNP1        0.0000
     20 C15         0.5980    2.3730    1.2640 C.3       1 PNP1        0.0000
     21 H5          0.1370    2.9200    0.4030 H         1 PNP1        0.0000
     22 O5          0.3390    3.1280    2.4490 O.3       1 PNP1        0.0000
     23 HO5         0.8290    3.9640    2.2730 H         1 PNP1        0.0000
     24 C16        -0.1690    1.0490    1.2100 C.3       1 PNP1        0.0000
     25 H6         -0.0440    0.5910    2.2220 H         1 PNP1        0.0000
     26 O6         -1.5650    1.2550    0.9730 O.3       1 PNP1        0.0000
     27 HO6        -1.8640    0.3890    0.6810 H         1 PNP1        0.0000
     28 C11         0.3550    0.0460    0.1930 C.3       1 PNP1        0.0000
     29 H1          0.0890    0.4940   -0.8030 H         1 PNP1        0.0000
     30 P          -0.3420   -2.3430    1.4590 P.3       1 PNP1        0.0000
     31 O13        -0.6370   -1.7310    2.7760 O.3       1 PNP1        0.0000
     32 O14         0.7900   -3.2910    1.3610 O.2       1 PNP1        0.0000
     33 O12        -0.3400   -1.2210    0.2330 O.3       1 PNP1        0.0000
     34 O11        -1.6340   -3.2280    1.1140 O.3       1 PNP1        0.0000
     35 C1         -1.9330   -4.3730    1.9410 C.3       1 PNP1        0.0000
     36 HA         -2.9530   -4.2570    2.3720 H         1 PNP1        0.0000
     37 HB         -1.2330   -4.4960    2.8060 H         1 PNP1        0.0000
     38 C2         -1.9170   -5.7170    1.1570 C.3       1 PNP1        0.0000
     39 HS         -2.7340   -5.6740    0.3980 H         1 PNP1        0.0000
     40 O21        -2.1330   -6.7600    2.1330 O.3       1 PNP1        0.0000
     41 C21        -2.7570   -7.8420    1.7140 C.2       1 PNP1        0.0000
     42 O22        -3.2520   -8.0150    0.6120 O.2       1 PNP1        0.0000
     43 C22        -2.7810   -8.8690    2.8520 C.3       1 PNP1        0.0000
     44 H2R        -3.2620   -8.3910    3.7300 H         1 PNP1        0.0000
     45 H2S        -1.7290   -9.1110    3.1110 H         1 PNP1        0.0000
     46 C3         -0.5700   -5.9480    0.4050 C.3       1 PNP1        0.0000
     47 HX          0.2410   -5.8630    1.1620 H         1 PNP1        0.0000
     48 HY         -0.4000   -5.1200   -0.3220 H         1 PNP1        0.0000
     49 O31        -0.4890   -7.2580   -0.2080 O.3       1 PNP1        0.0000
     50 C31        -1.0520   -7.3470   -1.4070 C.2       1 PNP1        0.0000
     51 O32        -1.5470   -6.4290   -2.0400 O.2       1 PNP1        0.0000
     52 C32        -0.9900   -8.7990   -1.8760 C.3       1 PNP1        0.0000
     53 H2X        -1.5530   -9.4070   -1.1360 H         1 PNP1        0.0000
     54 H2Y         0.0700   -9.1230   -1.8770 H         1 PNP1        0.0000
     55 C23        -3.5440  -10.1540    2.4580 C.3       1 PNP1        0.0000
     56 H3R        -3.0310  -10.6400    1.5970 H         1 PNP1        0.0000
     57 H3S        -4.5740   -9.8880    2.1270 H         1 PNP1        0.0000
     58 C24        -3.6580  -11.1720    3.6000 C.3       1 PNP1        0.0000
     59 H4R        -4.1730  -10.7020    4.4670 H         1 PNP1        0.0000
     60 H4S        -2.6420  -11.4780    3.9340 H         1 PNP1        0.0000
     61 C25        -4.4420  -12.4200    3.1750 C.3       1 PNP1        0.0000
     62 H5R        -3.9300  -12.8990    2.3110 H         1 PNP1        0.0000
     63 H5S        -5.4590  -12.1160    2.8360 H         1 PNP1        0.0000
     64 C26        -4.5740  -13.4370    4.3140 C.3       1 PNP1        0.0000
     65 H6R        -5.0950  -12.9550    5.1720 H         1 PNP1        0.0000
     66 H6S        -3.5570  -13.7300    4.6560 H         1 PNP1        0.0000
     67 C27        -5.3510  -14.6930    3.8970 C.3       1 PNP1        0.0000
     68 H7R        -4.8300  -15.1550    3.0280 H         1 PNP1        0.0000
     69 H7S        -6.3680  -14.3870    3.5620 H         1 PNP1        0.0000
     70 C28        -5.4660  -15.7220    5.0370 C.3       1 PNP1        0.0000
     71 H8R        -5.9150  -15.2230    5.9250 H         1 PNP1        0.0000
     72 H8S        -4.4340  -16.0260    5.3240 H         1 PNP1        0.0000
     73 C29        -6.2510  -16.9400    4.6140 C.2       1 PNP1        0.0000
     74 H91        -5.8540  -17.4390    3.7170 H         1 PNP1        0.0000
     75 C210       -7.3730  -17.4360    5.1790 C.2       1 PNP1        0.0000
     76 H101       -7.8090  -18.3500    4.7480 H         1 PNP1        0.0000
     77 C211       -8.1240  -16.8980    6.3730 C.3       1 PNP1        0.0000
     78 H11R       -7.4110  -16.5030    7.1320 H         1 PNP1        0.0000
     79 H11S       -8.6550  -17.7390    6.8740 H         1 PNP1        0.0000
     80 C212       -9.1200  -15.8200    5.9990 C.2       1 PNP1        0.0000
     81 H121       -9.1460  -15.5210    4.9390 H         1 PNP1        0.0000
     82 C213       -9.9620  -15.2280    6.8610 C.2       1 PNP1        0.0000
     83 H131       -9.9420  -15.5340    7.9190 H         1 PNP1        0.0000
     84 C214      -10.9590  -14.1510    6.4860 C.3       1 PNP1        0.0000
     85 H14R      -11.6670  -14.5510    5.7230 H         1 PNP1        0.0000
     86 H14S      -10.4240  -13.3090    5.9890 H         1 PNP1        0.0000
     87 C215      -11.7360  -13.6210    7.6680 C.2       1 PNP1        0.0000
     88 H151      -11.4810  -14.0300    8.6580 H         1 PNP1        0.0000
     89 C216      -12.7030  -12.6870    7.5850 C.2       1 PNP1        0.0000
     90 H161      -12.9630  -12.2650    6.6030 H         1 PNP1        0.0000
     91 C217      -13.4780  -12.1480    8.7590 C.3       1 PNP1        0.0000
     92 H17R      -12.7910  -11.6860    9.5050 H         1 PNP1        0.0000
     93 H17S      -14.0230  -12.9680    9.2810 H         1 PNP1        0.0000
     94 C218      -14.4940  -11.0920    8.2960 C.3       1 PNP1        0.0000
     95 H18R      -15.2190  -11.5280    7.5740 H         1 PNP1        0.0000
     96 H18S      -13.9800  -10.2340    7.8100 H         1 PNP1        0.0000
     97 H18T      -15.0690  -10.6990    9.1620 H         1 PNP1        0.0000
     98 C33        -1.6100   -8.9790   -3.2770 C.3       1 PNP1        0.0000
     99 H3X        -1.0160   -8.4080   -4.0270 H         1 PNP1        0.0000
    100 H3Y        -2.6440   -8.5620   -3.2830 H         1 PNP1        0.0000
    101 C34        -1.6760  -10.4520   -3.6960 C.3       1 PNP1        0.0000
    102 H4X        -2.2920  -11.0100   -2.9560 H         1 PNP1        0.0000
    103 H4Y        -0.6500  -10.8840   -3.6790 H         1 PNP1        0.0000
    104 C35        -2.2800  -10.6300   -5.0940 C.3       1 PNP1        0.0000
    105 H5X        -1.6480  -10.0860   -5.8320 H         1 PNP1        0.0000
    106 H5Y        -3.2920  -10.1680   -5.1120 H         1 PNP1        0.0000
    107 C36        -2.3920  -12.1020   -5.5130 C.3       1 PNP1        0.0000
    108 H6X        -3.0370  -12.6390   -4.7820 H         1 PNP1        0.0000
    109 H6Y        -1.3810  -12.5670   -5.4770 H         1 PNP1        0.0000
    110 C37        -2.9750  -12.2740   -6.9240 C.3       1 PNP1        0.0000
    111 H7X        -2.3310  -11.7270   -7.6490 H         1 PNP1        0.0000
    112 H7Y        -3.9870  -11.8120   -6.9570 H         1 PNP1        0.0000
    113 C38        -3.0770  -13.7470   -7.3520 C.3       1 PNP1        0.0000
    114 H8X        -3.7330  -14.2870   -6.6330 H         1 PNP1        0.0000
    115 H8Y        -2.0640  -14.2070   -7.2970 H         1 PNP1        0.0000
    116 C39        -3.6310  -13.9300   -8.7740 C.3       1 PNP1        0.0000
    117 H9X        -2.9800  -13.3820   -9.4910 H         1 PNP1        0.0000
    118 H9Y        -4.6490  -13.4820   -8.8300 H         1 PNP1        0.0000
    119 C310       -3.7070  -15.4070   -9.1950 C.3       1 PNP1        0.0000
    120 H10X       -4.3660  -15.9530   -8.4840 H         1 PNP1        0.0000
    121 H10Y       -2.6900  -15.8550   -9.1240 H         1 PNP1        0.0000
    122 C311       -4.2380  -15.6060  -10.6230 C.3       1 PNP1        0.0000
    123 H11X       -3.5820  -15.0570  -11.3350 H         1 PNP1        0.0000
    124 H11Y       -5.2590  -15.1700  -10.6970 H         1 PNP1        0.0000
    125 C312       -4.2930  -17.0860  -11.0350 C.3       1 PNP1        0.0000
    126 H12X       -4.9540  -17.6360  -10.3280 H         1 PNP1        0.0000
    127 H12Y       -3.2730  -17.5240  -10.9550 H         1 PNP1        0.0000
    128 C313       -4.8120  -17.2910  -12.4660 C.3       1 PNP1        0.0000
    129 H13X       -4.1530  -16.7410  -13.1750 H         1 PNP1        0.0000
    130 H13Y       -5.8340  -16.8600  -12.5490 H         1 PNP1        0.0000
    131 C314       -4.8580  -18.7710  -12.8750 C.3       1 PNP1        0.0000
    132 H14X       -5.5180  -19.3240  -12.1700 H         1 PNP1        0.0000
    133 H14Y       -3.8360  -19.2050  -12.7910 H         1 PNP1        0.0000
    134 C315       -5.3720  -18.9770  -14.3060 C.3       1 PNP1        0.0000
    135 H15X       -4.7120  -18.4170  -15.0080 H         1 PNP1        0.0000
    136 H15Y       -6.3930  -18.5390  -14.3870 H         1 PNP1        0.0000
    137 C316       -5.4220  -20.4490  -14.7280 C.3       1 PNP1        0.0000
    138 H16X       -6.0940  -21.0230  -14.0560 H         1 PNP1        0.0000
    139 H16Y       -4.4080  -20.9020  -14.6790 H         1 PNP1        0.0000
    140 H16Z       -5.7990  -20.5450  -15.7690 H         1 PNP1        0.0000
@<TRIPOS>BOND
     1  140  137 1 
     2  135  134 1 
     3  137  139 1 
     4  137  134 1 
     5  137  138 1 
     6  136  134 1 
     7  134  131 1 
     8  129  128 1 
     9  131  133 1 
    10  131  128 1 
    11  131  132 1 
    12  130  128 1 
    13  128  125 1 
    14  123  122 1 
    15  125  127 1 
    16  125  122 1 
    17  125  126 1 
    18  124  122 1 
    19  122  119 1 
    20  117  116 1 
    21  119  121 1 
    22  119  116 1 
    23  119  120 1 
    24  118  116 1 
    25  116  113 1 
    26  111  110 1 
    27  113  115 1 
    28  113  110 1 
    29  113  114 1 
    30  112  110 1 
    31  110  107 1 
    32  105  104 1 
    33  107  109 1 
    34  107  104 1 
    35  107  108 1 
    36  106  104 1 
    37  104  101 1 
    38   99   98 1 
    39  101  103 1 
    40  101   98 1 
    41  101  102 1 
    42  100   98 1 
    43   98   52 1 
    44   11    8 2 
    45    9    8 1 
    46   51   50 2 
    47   54   52 1 
    48   52   50 1 
    49   52   53 1 
    50    8   10 1 
    51    8    7 1 
    52   50   49 1 
    53    6    5 1 
    54   18   15 2 
    55   29   28 1 
    56    2    1 1 
    57   19   15 1 
    58   48   46 1 
    59   49   46 1 
    60    7    5 1 
    61    5    1 1 
    62    5   12 1 
    63   15   14 1 
    64   15   16 1 
    65    1   28 1 
    66    1    3 1 
    67   28   33 1 
    68   28   24 1 
    69   33   30 1 
    70   39   38 1 
    71   21   20 1 
    72   46   38 1 
    73   46   47 1 
    74   42   41 2 
    75   27   26 1 
    76   14   12 1 
    77   26   24 1 
    78   12   20 1 
    79   12   13 1 
    80   34   30 1 
    81   34   35 1 
    82    4    3 1 
    83   38   35 1 
    84   38   40 1 
    85   17   16 1 
    86   24   20 1 
    87   24   25 1 
    88   20   22 1 
    89   32   30 2 
    90   30   31 1 
    91   56   55 1 
    92   41   40 1 
    93   41   43 1 
    94   35   36 1 
    95   35   37 1 
    96   57   55 1 
    97   23   22 1 
    98   62   61 1 
    99   55   43 1 
   100   55   58 1 
   101   63   61 1 
   102   43   45 1 
   103   43   44 1 
   104   68   67 1 
   105   61   58 1 
   106   61   64 1 
   107   69   67 1 
   108   58   60 1 
   109   58   59 1 
   110   74   73 1 
   111   67   64 1 
   112   67   70 1 
   113   64   66 1 
   114   64   65 1 
   115   73   70 1 
   116   73   75 2 
   117   76   75 1 
   118   81   80 1 
   119   70   72 1 
   120   70   71 1 
   121   75   77 1 
   122   85   84 1 
   123   86   84 1 
   124   80   77 1 
   125   80   82 2 
   126   77   79 1 
   127   77   78 1 
   128   84   82 1 
   129   84   87 1 
   130   90   89 1 
   131   82   83 1 
   132   95   94 1 
   133   89   87 2 
   134   89   91 1 
   135   87   88 1 
   136   96   94 1 
   137   94   91 1 
   138   94   97 1 
   139   91   93 1 
   140   91   92 1 
