@<TRIPOS>MOLECULE
C:\Users\Praveer\PycharmProjects\pdb_to_mol2_converter\data\pdb\pnpo.pdb
   15    15     0     0     0
SMALL
GASTEIGER

@<TRIPOS>ATOM
      1 C1          1.3990    0.0050   -0.0000 C.ar      1 PNP1        0.0000
      2 H1          1.9610   -0.9190   -0.0000 H         1 PNP1        0.0000
      3 C2          2.0960    1.2200    0.0000 C.ar      1 PNP1        0.0000
      4 H2          3.1780    1.2300    0.0000 H         1 PNP1        0.0000
      5 C3          1.3980    2.4290    0.0000 C.ar      1 PNP1        0.0000
      6 O3          2.1120    3.6410    0.0000 O.3       1 PNP1        0.0000
      7 H3          1.4770    4.3600    0.0000 H         1 PNP1        0.0000
      8 C4          0.0000    2.4280   -0.0000 C.ar      1 PNP1        0.0000
      9 H4         -0.5460    3.3610   -0.0000 H         1 PNP1        0.0000
     10 C5         -0.6980    1.2120   -0.0000 C.ar      1 PNP1        0.0000
     11 H5         -1.7790    1.2310   -0.0000 H         1 PNP1        0.0000
     12 C6         -0.0210   -0.0380   -0.0000 C.ar      1 PNP1        0.0000
     13 N6         -0.7530   -1.3080   -0.0000 N.pl3     1 PNP1        0.0000
     14 O6A        -1.9810   -1.2530    0.0000 O.2       1 PNP1        0.0000
     15 O6B        -0.0900   -2.3440   -0.0000 O.2       1 PNP1        0.0000
@<TRIPOS>BOND
     1    1    2 1 
     2    1    3 ar
     3    1   12 ar
     4    3    4 1 
     5    3    5 ar
     6    5    6 1 
     7    5    8 ar
     8    6    7 1 
     9    8    9 1 
    10    8   10 ar
    11   10   11 1 
    12   10   12 ar
    13   12   13 1 
    14   13   14 2 
    15   13   15 2 
