@<TRIPOS>MOLECULE
C:\Users\Praveer\PycharmProjects\pdb_to_mol2_converter\data\pdb\pntm.pdb
   51    52     0     0     0
SMALL
GASTEIGER

@<TRIPOS>ATOM
      1 C1          2.2540    1.2310    0.0000 C.3       1 PNT1        0.0000
      2 H2          1.8960    1.7830    0.8990 H         1 PNT1        0.0000
      3 H3          1.8920    1.7810   -0.8990 H         1 PNT1        0.0000
      4 C4          1.6170   -0.1640    0.0040 C.3       1 PNT1        0.0000
      5 H5          1.9420   -0.7260    0.9070 H         1 PNT1        0.0000
      6 H6          1.9470   -0.7340   -0.8920 H         1 PNT1        0.0000
      7 C7          3.7880    1.2560   -0.0040 C.3       1 PNT1        0.0000
      8 H8          4.1730    0.7340   -0.9070 H         1 PNT1        0.0000
      9 H9          4.1780    0.7260    0.8920 H         1 PNT1        0.0000
     10 C10         0.0870   -0.0280   -0.0020 C.3       1 PNT1        0.0000
     11 H11        -0.1880    0.5440   -0.9180 H         1 PNT1        0.0000
     12 H12        -0.1950    0.5610    0.9020 H         1 PNT1        0.0000
     13 O13        -0.6030   -1.2750    0.0100 O.3       1 PNT1        0.0000
     14 C14        -2.0140   -1.2010    0.0040 C.ar      1 PNT1        0.0000
     15 C15        -2.7190    0.0210   -0.0270 C.ar      1 PNT1        0.0000
     16 H16        -2.2090    0.9710   -0.0460 H         1 PNT1        0.0000
     17 C17        -4.1180    0.0430   -0.0320 C.ar      1 PNT1        0.0000
     18 H18        -4.6050    1.0100   -0.0450 H         1 PNT1        0.0000
     19 C19        -2.7460   -2.3940    0.0320 C.ar      1 PNT1        0.0000
     20 H20        -2.2070   -3.3330    0.0550 H         1 PNT1        0.0000
     21 C21        -4.1480   -2.3790    0.0300 C.ar      1 PNT1        0.0000
     22 H22        -4.6690   -3.3270    0.0420 H         1 PNT1        0.0000
     23 C23        -4.8680   -1.1570   -0.0050 C.ar      1 PNT1        0.0000
     24 C24        -6.3550   -1.1160   -0.0080 C.2       1 PNT1        0.0000
     25 N25        -7.0080   -0.2460   -0.7680 N.2       1 PNT1        0.0000
     26 H26        -6.5110    0.3810   -1.3680 H         1 PNT1        0.0000
     27 H27        -8.0050   -0.2280   -0.7580 H         1 PNT1        0.0000
     28 N28        -7.0550   -1.9440    0.7570 N.pl3     1 PNT1        0.0000
     29 H29        -6.5940   -2.5840    1.3690 H         1 PNT1        0.0000
     30 H30        -8.0520   -1.8940    0.7540 H         1 PNT1        0.0000
     31 C31         4.2760    2.7130    0.0020 C.3       1 PNT1        0.0000
     32 H32         3.8620    3.1940    0.9180 H         1 PNT1        0.0000
     33 H33         3.8490    3.2070   -0.9020 H         1 PNT1        0.0000
     34 O34         5.6950    2.8460   -0.0100 O.3       1 PNT1        0.0000
     35 C35         6.1920    4.1690   -0.0040 C.ar      1 PNT1        0.0000
     36 C36         5.3550    5.3040    0.0270 C.ar      1 PNT1        0.0000
     37 H37         4.2790    5.2170    0.0460 H         1 PNT1        0.0000
     38 C38         5.8940    6.5950    0.0320 C.ar      1 PNT1        0.0000
     39 H39         5.2030    7.4280    0.0450 H         1 PNT1        0.0000
     40 C40         7.5780    4.3620   -0.0320 C.ar      1 PNT1        0.0000
     41 H41         8.2230    3.4920   -0.0550 H         1 PNT1        0.0000
     42 C42         8.1250    5.6530   -0.0300 C.ar      1 PNT1        0.0000
     43 H43         9.2020    5.7500   -0.0420 H         1 PNT1        0.0000
     44 C44         7.2940    6.8020    0.0050 C.ar      1 PNT1        0.0000
     45 C45         7.8520    8.1800    0.0080 C.2       1 PNT1        0.0000
     46 N46         7.3160    9.1280    0.7680 N.pl3     1 PNT1        0.0000
     47 H47         6.5430    8.9230    1.3680 H         1 PNT1        0.0000
     48 H48         7.6990   10.0490    0.7580 H         1 PNT1        0.0000
     49 N49         8.8910    8.4910   -0.7570 N.2       1 PNT1        0.0000
     50 H50         9.2930    7.8120   -1.3690 H         1 PNT1        0.0000
     51 H51         9.2440    9.4240   -0.7540 H         1 PNT1        0.0000
@<TRIPOS>BOND
     1   50   49 1 
     2   26   25 1 
     3   11   10 1 
     4    8    7 1 
     5   33   31 1 
     6    3    1 1 
     7    6    4 1 
     8   25   27 1 
     9   25   24 2 
    10   49   51 1 
    11   49   45 2 
    12   41   40 1 
    13   16   15 1 
    14   18   17 1 
    15   43   42 1 
    16   40   42 ar
    17   40   35 ar
    18   17   15 ar
    19   17   23 ar
    20   42   44 ar
    21   15   14 ar
    22   34   35 1 
    23   34   31 1 
    24   24   23 1 
    25   24   28 1 
    26   23   21 ar
    27    7    1 1 
    28    7   31 1 
    29    7    9 1 
    30   35   36 ar
    31   10    4 1 
    32   10   13 1 
    33   10   12 1 
    34    1    4 1 
    35    1    2 1 
    36   31   32 1 
    37    4    5 1 
    38   14   13 1 
    39   14   19 ar
    40   44   45 1 
    41   44   38 ar
    42   45   46 1 
    43   36   38 ar
    44   36   37 1 
    45   21   19 ar
    46   21   22 1 
    47   19   20 1 
    48   38   39 1 
    49   30   28 1 
    50   28   29 1 
    51   48   46 1 
    52   46   47 1 
