@<TRIPOS>MOLECULE
C:\Users\Praveer\PycharmProjects\pdb_to_mol2_converter\data\pdb\ponm.pdb
   20    21     0     0     0
SMALL
GASTEIGER

@<TRIPOS>ATOM
      1 C1          1.5400   -0.0330   -0.0410 C.3       1 PON1        0.0000
      2 H1          1.9200   -0.5370    0.8420 H         1 PON1        0.0000
      3 N6          1.9990    1.3930    0.0160 N.4       1 PON1        0.0000
      4 H61         1.4730    1.8190    0.7650 H         1 PON1        0.0000
      5 H62         1.6260    1.8100   -0.8240 H         1 PON1        0.0000
      6 C7          3.4650    1.6800    0.1660 C.3       1 PON1        0.0000
      7 H71         3.9770    1.2990   -0.7420 H         1 PON1        0.0000
      8 H72         3.8100    1.1610    1.0840 H         1 PON1        0.0000
      9 H73         3.5710    2.7820    0.2560 H         1 PON1        0.0000
     10 C2          1.9310   -0.6550   -1.4100 C.3       1 PON1        0.0000
     11 H21         2.0360   -1.7440   -1.2540 H         1 PON1        0.0000
     12 H22         2.8980   -0.3270   -1.8090 H         1 PON1        0.0000
     13 C3          0.7670   -0.4020   -2.3760 C.3       1 PON1        0.0000
     14 H31         0.6390   -1.2290   -3.0930 H         1 PON1        0.0000
     15 H32         0.8910    0.5190   -2.9680 H         1 PON1        0.0000
     16 C4         -0.4120   -0.2770   -1.4490 C.3       1 PON1        0.0000
     17 H4         -1.3730   -0.7750   -1.6630 H         1 PON1        0.0000
     18 O4         -0.5330    1.0090   -0.8380 O.3       1 PON1        0.0000
     19 C5          0.0280   -0.0570   -0.0440 C.3       1 PON1        0.0000
     20 H5         -0.5460   -0.3970    0.8000 H         1 PON1        0.0000
@<TRIPOS>BOND
     1   14   13 1 
     2   15   13 1 
     3   13   16 1 
     4   13   10 1 
     5   12   10 1 
     6   17   16 1 
     7   16   18 1 
     8   16   19 1 
     9   10   11 1 
    10   10    1 1 
    11   18   19 1 
    12    5    3 1 
    13    7    6 1 
    14   19    1 1 
    15   19   20 1 
    16    1    3 1 
    17    1    2 1 
    18    3    6 1 
    19    3    4 1 
    20    6    9 1 
    21    6    8 1 
