@<TRIPOS>MOLECULE
C:\Users\Praveer\PycharmProjects\pdb_to_mol2_converter\data\pdb\popa.pdb
  116   115     0     0     0
SMALL
GASTEIGER

@<TRIPOS>ATOM
      1 P           1.3630    1.4980    0.0180 P.3       1 POP1        0.0000
      2 O13         0.7070    2.0110    1.2300 O.3       1 POP1        0.0000
      3 O14         0.9200    1.9820   -1.2990 O.2       1 POP1        0.0000
      4 O12         0.9650   -0.0190    0.0040 O.3       1 POP1        0.0000
      5 H12         0.0050   -0.0350   -0.0140 H         1 POP1        0.0000
      6 O11         2.9380    1.5010    0.1410 O.3       1 POP1        0.0000
      7 C1          3.7620    1.1430   -0.9720 C.3       1 POP1        0.0000
      8 HA          4.2920    2.0460   -1.3470 H         1 POP1        0.0000
      9 HB          3.1810    0.7190   -1.8280 H         1 POP1        0.0000
     10 C2          4.8110    0.0840   -0.5570 C.3       1 POP1        0.0000
     11 HS          5.5270    0.5760    0.1440 H         1 POP1        0.0000
     12 O21         5.4480   -0.3720   -1.7680 O.3       1 POP1        0.0000
     13 C21         6.6870   -0.8000   -1.6380 C.2       1 POP1        0.0000
     14 O22         7.3700   -0.7570   -0.6310 O.2       1 POP1        0.0000
     15 C22         7.1460   -1.3690   -2.9810 C.3       1 POP1        0.0000
     16 H2R         7.0870   -0.5560   -3.7330 H         1 POP1        0.0000
     17 H2S         6.4360   -2.1710   -3.2700 H         1 POP1        0.0000
     18 C3          4.1320   -1.1030    0.1930 C.3       1 POP1        0.0000
     19 HX          3.3080   -1.4630   -0.4630 H         1 POP1        0.0000
     20 HY          3.6460   -0.7200    1.1210 H         1 POP1        0.0000
     21 O31         5.0330   -2.2060    0.4450 O.3       1 POP1        0.0000
     22 C31         5.7490   -2.1070    1.5600 C.2       1 POP1        0.0000
     23 O32         5.6470   -1.2400    2.4070 O.2       1 POP1        0.0000
     24 C32         6.7250   -3.2840    1.6110 C.3       1 POP1        0.0000
     25 H2X         7.3500   -3.2390    0.6950 H         1 POP1        0.0000
     26 H2Y         6.1310   -4.2200    1.5940 H         1 POP1        0.0000
     27 C23         8.5830   -1.9330   -2.9200 C.3       1 POP1        0.0000
     28 H3R         8.6370   -2.7360   -2.1490 H         1 POP1        0.0000
     29 H3S         9.2890   -1.1270   -2.6140 H         1 POP1        0.0000
     30 C24         9.0390   -2.5070   -4.2670 C.3       1 POP1        0.0000
     31 H4R         8.9940   -1.7070   -5.0400 H         1 POP1        0.0000
     32 H4S         8.3380   -3.3160   -4.5750 H         1 POP1        0.0000
     33 C25        10.4640   -3.0730   -4.2150 C.3       1 POP1        0.0000
     34 H5R        10.5110   -3.8720   -3.4420 H         1 POP1        0.0000
     35 H5S        11.1670   -2.2660   -3.9090 H         1 POP1        0.0000
     36 C26        10.9210   -3.6510   -5.5610 C.3       1 POP1        0.0000
     37 H6R        10.8870   -2.8500   -6.3330 H         1 POP1        0.0000
     38 H6S        10.2130   -4.4510   -5.8730 H         1 POP1        0.0000
     39 C27        12.3400   -4.2330   -5.5030 C.3       1 POP1        0.0000
     40 H7R        12.3680   -5.0260   -4.7220 H         1 POP1        0.0000
     41 H7S        13.0450   -3.4270   -5.1960 H         1 POP1        0.0000
     42 C28        12.7900   -4.8180   -6.8550 C.3       1 POP1        0.0000
     43 H8R        12.7220   -4.0060   -7.6130 H         1 POP1        0.0000
     44 H8S        12.0630   -5.6030   -7.1600 H         1 POP1        0.0000
     45 C29        14.1770   -5.4080   -6.7710 C.2       1 POP1        0.0000
     46 H91        14.2810   -6.2270   -6.0420 H         1 POP1        0.0000
     47 C210       15.2660   -5.0200   -7.4620 C.2       1 POP1        0.0000
     48 H101       16.2200   -5.5390   -7.2800 H         1 POP1        0.0000
     49 C211       15.3350   -3.9220   -8.4960 C.3       1 POP1        0.0000
     50 H11R       14.3430   -3.7300   -8.9610 H         1 POP1        0.0000
     51 H11S       16.0140   -4.2240   -9.3240 H         1 POP1        0.0000
     52 C212       15.8470   -2.6020   -7.8940 C.3       1 POP1        0.0000
     53 H12R       16.8600   -2.7550   -7.4560 H         1 POP1        0.0000
     54 H12S       15.1680   -2.2810   -7.0710 H         1 POP1        0.0000
     55 C213       15.9250   -1.4750   -8.9340 C.3       1 POP1        0.0000
     56 H13R       14.9120   -1.3090   -9.3650 H         1 POP1        0.0000
     57 H13S       16.5990   -1.7890   -9.7620 H         1 POP1        0.0000
     58 C214       16.4390   -0.1570   -8.3390 C.3       1 POP1        0.0000
     59 H14R       17.4540   -0.3220   -7.9120 H         1 POP1        0.0000
     60 H14S       15.7690    0.1540   -7.5070 H         1 POP1        0.0000
     61 C215       16.5090    0.9720   -9.3760 C.3       1 POP1        0.0000
     62 H15R       15.4930    1.1430   -9.7970 H         1 POP1        0.0000
     63 H15S       17.1730    0.6570  -10.2130 H         1 POP1        0.0000
     64 C216       17.0370    2.2870   -8.7850 C.3       1 POP1        0.0000
     65 H16R       18.0530    2.1150   -8.3650 H         1 POP1        0.0000
     66 H16S       16.3740    2.6030   -7.9490 H         1 POP1        0.0000
     67 C217       17.1080    3.4150   -9.8230 C.3       1 POP1        0.0000
     68 H17R       16.0900    3.5820  -10.2410 H         1 POP1        0.0000
     69 H17S       17.7640    3.0890  -10.6620 H         1 POP1        0.0000
     70 C218       17.6400    4.7320   -9.2510 C.3       1 POP1        0.0000
     71 H18R       18.6670    4.5950   -8.8500 H         1 POP1        0.0000
     72 H18S       16.9860    5.0900   -8.4260 H         1 POP1        0.0000
     73 H18T       17.6720    5.5150  -10.0390 H         1 POP1        0.0000
     74 C33         7.6310   -3.2500    2.8610 C.3       1 POP1        0.0000
     75 H3X         7.0060   -3.2690    3.7820 H         1 POP1        0.0000
     76 H3Y         8.2130   -2.2990    2.8700 H         1 POP1        0.0000
     77 C34         8.6100   -4.4320    2.8940 C.3       1 POP1        0.0000
     78 H4X         9.2310   -4.4140    1.9710 H         1 POP1        0.0000
     79 H4Y         8.0320   -5.3830    2.8960 H         1 POP1        0.0000
     80 C35         9.5350   -4.4020    4.1180 C.3       1 POP1        0.0000
     81 H5X         8.9170   -4.4150    5.0440 H         1 POP1        0.0000
     82 H5Y        10.1150   -3.4520    4.1120 H         1 POP1        0.0000
     83 C36        10.5100   -5.5870    4.1470 C.3       1 POP1        0.0000
     84 H6X        11.1210   -5.5770    3.2160 H         1 POP1        0.0000
     85 H6Y         9.9300   -6.5370    4.1600 H         1 POP1        0.0000
     86 C37        11.4470   -5.5540    5.3620 C.3       1 POP1        0.0000
     87 H7X        10.8370   -5.5590    6.2930 H         1 POP1        0.0000
     88 H7Y        12.0310   -4.6060    5.3450 H         1 POP1        0.0000
     89 C38        12.4190   -6.7410    5.3910 C.3       1 POP1        0.0000
     90 H8X        13.0240   -6.7400    4.4560 H         1 POP1        0.0000
     91 H8Y        11.8350   -7.6890    5.4140 H         1 POP1        0.0000
     92 C39        13.3650   -6.7040    6.5990 C.3       1 POP1        0.0000
     93 H9X        12.7610   -6.7020    7.5350 H         1 POP1        0.0000
     94 H9Y        13.9510   -5.7590    6.5730 H         1 POP1        0.0000
     95 C310       14.3320   -7.8950    6.6290 C.3       1 POP1        0.0000
     96 H10X       14.9320   -7.9010    5.6910 H         1 POP1        0.0000
     97 H10Y       13.7450   -8.8400    6.6600 H         1 POP1        0.0000
     98 C311       15.2840   -7.8560    7.8320 C.3       1 POP1        0.0000
     99 H11X       14.6850   -7.8480    8.7710 H         1 POP1        0.0000
    100 H11Y       15.8740   -6.9130    7.7990 H         1 POP1        0.0000
    101 C312       16.2480   -9.0500    7.8610 C.3       1 POP1        0.0000
    102 H12X       16.8430   -9.0610    6.9210 H         1 POP1        0.0000
    103 H12Y       15.6570   -9.9940    7.8980 H         1 POP1        0.0000
    104 C313       17.2040   -9.0100    9.0600 C.3       1 POP1        0.0000
    105 H13X       16.6090   -8.9980   10.0010 H         1 POP1        0.0000
    106 H13Y       17.7960   -8.0680    9.0220 H         1 POP1        0.0000
    107 C314       18.1660  -10.2060    9.0890 C.3       1 POP1        0.0000
    108 H14X       18.7590  -10.2200    8.1480 H         1 POP1        0.0000
    109 H14Y       17.5740  -11.1490    9.1290 H         1 POP1        0.0000
    110 C315       19.1250  -10.1670   10.2850 C.3       1 POP1        0.0000
    111 H15X       18.5270  -10.1470   11.2240 H         1 POP1        0.0000
    112 H15Y       19.7110   -9.2200   10.2430 H         1 POP1        0.0000
    113 C316       20.0900  -11.3550   10.3280 C.3       1 POP1        0.0000
    114 H16X       20.7150  -11.3810    9.4100 H         1 POP1        0.0000
    115 H16Y       19.5270  -12.3100   10.3960 H         1 POP1        0.0000
    116 H16Z       20.7630  -11.2800   11.2100 H         1 POP1        0.0000
@<TRIPOS>BOND
     1   69   67 1 
     2   68   67 1 
     3   63   61 1 
     4   73   70 1 
     5   67   70 1 
     6   67   64 1 
     7   62   61 1 
     8   57   55 1 
     9   61   64 1 
    10   61   58 1 
    11   56   55 1 
    12   51   49 1 
    13   70   71 1 
    14   70   72 1 
    15   50   49 1 
    16   55   58 1 
    17   55   52 1 
    18   64   65 1 
    19   64   66 1 
    20   49   52 1 
    21   49   47 1 
    22   58   59 1 
    23   58   60 1 
    24   52   53 1 
    25   52   54 1 
    26   43   42 1 
    27   47   48 1 
    28   47   45 2 
    29   44   42 1 
    30   42   45 1 
    31   42   39 1 
    32   45   46 1 
    33   37   36 1 
    34   38   36 1 
    35   36   39 1 
    36   36   33 1 
    37   39   41 1 
    38   39   40 1 
    39   31   30 1 
    40   32   30 1 
    41   30   33 1 
    42   30   27 1 
    43   33   35 1 
    44   33   34 1 
    45   16   15 1 
    46   17   15 1 
    47   15   27 1 
    48   15   13 1 
    49   27   29 1 
    50   27   28 1 
    51    9    7 1 
    52   12   13 1 
    53   12   10 1 
    54   13   14 2 
    55    8    7 1 
    56    3    1 2 
    57    7   10 1 
    58    7    6 1 
    59   10   11 1 
    60   10   18 1 
    61   19   18 1 
    62    5    4 1 
    63    4    1 1 
    64    1    6 1 
    65    1    2 1 
    66   18   21 1 
    67   18   20 1 
    68   21   22 1 
    69   25   24 1 
    70   22   24 1 
    71   22   23 2 
    72   26   24 1 
    73   24   74 1 
    74   78   77 1 
    75   74   76 1 
    76   74   77 1 
    77   74   75 1 
    78   77   79 1 
    79   77   80 1 
    80   84   83 1 
    81   82   80 1 
    82   80   83 1 
    83   80   81 1 
    84   83   85 1 
    85   83   86 1 
    86   90   89 1 
    87   88   86 1 
    88   86   89 1 
    89   86   87 1 
    90   89   91 1 
    91   89   92 1 
    92   96   95 1 
    93   94   92 1 
    94   92   95 1 
    95   92   93 1 
    96   95   97 1 
    97   95   98 1 
    98  102  101 1 
    99  100   98 1 
   100   98  101 1 
   101   98   99 1 
   102  101  103 1 
   103  101  104 1 
   104  108  107 1 
   105  106  104 1 
   106  104  107 1 
   107  104  105 1 
   108  107  109 1 
   109  107  110 1 
   110  114  113 1 
   111  112  110 1 
   112  110  113 1 
   113  110  111 1 
   114  113  115 1 
   115  113  116 1 
