@<TRIPOS>MOLECULE
C:\Users\Praveer\PycharmProjects\pdb_to_mol2_converter\data\pdb\popc.pdb
  134   133     0     0     0
SMALL
GASTEIGER

@<TRIPOS>ATOM
      1 N           1.4830   -0.0030   -0.0060 N.4       1 POP1        0.0000
      2 C12         2.0300    1.4170   -0.0020 C.3       1 POP1        0.0000
      3 H12A        1.8180    1.9270   -0.9290 H         1 POP1        0.0000
      4 H12B        3.1230    1.3570    0.0670 H         1 POP1        0.0000
      5 C13        -0.0130    0.0050   -0.0040 C.3       1 POP1        0.0000
      6 H13A       -0.4040    0.5050   -0.8790 H         1 POP1        0.0000
      7 H13B       -0.3720    0.5360    0.8730 H         1 POP1        0.0000
      8 H13C       -0.4070   -1.0020    0.0320 H         1 POP1        0.0000
      9 C14         2.0060   -0.7390   -1.2030 C.3       1 POP1        0.0000
     10 H14A        3.0930   -0.7430   -1.1860 H         1 POP1        0.0000
     11 H14B        1.6850   -0.2750   -2.1250 H         1 POP1        0.0000
     12 H14C        1.6740   -1.7690   -1.1990 H         1 POP1        0.0000
     13 C15         1.9850   -0.7060    1.2250 C.3       1 POP1        0.0000
     14 H15A        1.7050   -0.1600    2.1300 H         1 POP1        0.0000
     15 H15B        3.0780   -0.6750    1.2550 H         1 POP1        0.0000
     16 H15C        1.6520   -1.7240    1.3030 H         1 POP1        0.0000
     17 C11         1.6140    2.3230    1.1750 C.3       1 POP1        0.0000
     18 H11A        1.0040    1.7900    1.9400 H         1 POP1        0.0000
     19 H11B        0.9820    3.1530    0.7870 H         1 POP1        0.0000
     20 P           3.7800    1.8910    2.5230 P.3       1 POP1        0.0000
     21 O13         2.9760    1.1100    3.4880 O.3       1 POP1        0.0000
     22 O14         4.4980    1.1180    1.4840 O.2       1 POP1        0.0000
     23 O12         2.7890    2.8750    1.7620 O.3       1 POP1        0.0000
     24 O11         4.7550    2.8810    3.2710 O.3       1 POP1        0.0000
     25 C1          4.2670    3.9230    4.1170 C.3       1 POP1        0.0000
     26 HA          4.6720    3.7670    5.1420 H         1 POP1        0.0000
     27 HB          3.1540    3.9440    4.2040 H         1 POP1        0.0000
     28 C2          4.7450    5.3090    3.6200 C.3       1 POP1        0.0000
     29 HS          5.8590    5.2670    3.5550 H         1 POP1        0.0000
     30 O21         4.2900    6.2800    4.5840 O.3       1 POP1        0.0000
     31 C21         5.0440    7.3590    4.6990 C.2       1 POP1        0.0000
     32 O22         6.1000    7.5690    4.1320 O.2       1 POP1        0.0000
     33 C22         4.3760    8.3190    5.6850 C.3       1 POP1        0.0000
     34 H2R         4.2820    7.7940    6.6580 H         1 POP1        0.0000
     35 H2S         3.3600    8.5490    5.3040 H         1 POP1        0.0000
     36 C3          4.1810    5.6250    2.2010 C.3       1 POP1        0.0000
     37 HX          3.0760    5.5200    2.2650 H         1 POP1        0.0000
     38 HY          4.5300    4.8430    1.4870 H         1 POP1        0.0000
     39 O31         4.4900    6.9660    1.7580 O.3       1 POP1        0.0000
     40 C31         5.6600    7.0980    1.1380 C.2       1 POP1        0.0000
     41 O32         6.4060    6.1910    0.8190 O.2       1 POP1        0.0000
     42 C32         5.9060    8.5830    0.8710 C.3       1 POP1        0.0000
     43 H2X         5.9320    9.0970    1.8550 H         1 POP1        0.0000
     44 H2Y         5.0490    8.9750    0.2860 H         1 POP1        0.0000
     45 C23         5.1840    9.6230    5.8640 C.3       1 POP1        0.0000
     46 H3R         5.2750   10.1450    4.8840 H         1 POP1        0.0000
     47 H3S         6.2150    9.3810    6.2100 H         1 POP1        0.0000
     48 C24         4.5380   10.5780    6.8770 C.3       1 POP1        0.0000
     49 H4R         4.4540   10.0650    7.8610 H         1 POP1        0.0000
     50 H4S         3.5080   10.8300    6.5370 H         1 POP1        0.0000
     51 C25         5.3400   11.8740    7.0530 C.3       1 POP1        0.0000
     52 H5R         5.4220   12.3880    6.0690 H         1 POP1        0.0000
     53 H5S         6.3710   11.6220    7.3890 H         1 POP1        0.0000
     54 C26         4.7050   12.8350    8.0680 C.3       1 POP1        0.0000
     55 H6R         4.6310   12.3270    9.0560 H         1 POP1        0.0000
     56 H6S         3.6710   13.0840    7.7370 H         1 POP1        0.0000
     57 C27         5.5070   14.1340    8.2290 C.3       1 POP1        0.0000
     58 H7R         5.5920   14.6230    7.2320 H         1 POP1        0.0000
     59 H7S         6.5360   13.8770    8.5710 H         1 POP1        0.0000
     60 C28         4.8600   15.1070    9.2320 C.3       1 POP1        0.0000
     61 H8R         4.7610   14.5740   10.2040 H         1 POP1        0.0000
     62 H8S         3.8290   15.3390    8.8850 H         1 POP1        0.0000
     63 C29         5.6600   16.3810    9.3590 C.2       1 POP1        0.0000
     64 H91         5.8120   16.9240    8.4130 H         1 POP1        0.0000
     65 C210        6.2100   16.8770   10.4830 C.2       1 POP1        0.0000
     66 H101        6.7860   17.8140   10.4240 H         1 POP1        0.0000
     67 C211        6.1140   16.2780   11.8650 C.3       1 POP1        0.0000
     68 H11R        5.1520   15.7360   12.0050 H         1 POP1        0.0000
     69 H11S        6.1330   17.0850   12.6300 H         1 POP1        0.0000
     70 C212        7.2650   15.2960   12.1530 C.3       1 POP1        0.0000
     71 H12R        8.2420   15.8190   12.0470 H         1 POP1        0.0000
     72 H12S        7.2400   14.4680   11.4080 H         1 POP1        0.0000
     73 C213        7.1770   14.6930   13.5630 C.3       1 POP1        0.0000
     74 H13R        6.1960   14.1790   13.6770 H         1 POP1        0.0000
     75 H13S        7.2180   15.5140   14.3130 H         1 POP1        0.0000
     76 C214        8.3030   13.6910   13.8490 C.3       1 POP1        0.0000
     77 H14R        9.2850   14.2020   13.7300 H         1 POP1        0.0000
     78 H14S        8.2570   12.8680   13.1000 H         1 POP1        0.0000
     79 C215        8.2160   13.0930   15.2590 C.3       1 POP1        0.0000
     80 H15R        7.2320   12.5860   15.3790 H         1 POP1        0.0000
     81 H15S        8.2660   13.9160   16.0070 H         1 POP1        0.0000
     82 C216        9.3370   12.0840   15.5460 C.3       1 POP1        0.0000
     83 H16R       10.3210   12.5880   15.4210 H         1 POP1        0.0000
     84 H16S        9.2830   11.2580   14.8020 H         1 POP1        0.0000
     85 C217        9.2530   11.4930   16.9590 C.3       1 POP1        0.0000
     86 H17R        8.2640   10.9970   17.0820 H         1 POP1        0.0000
     87 H17S        9.3030   12.3240   17.6990 H         1 POP1        0.0000
     88 C218       10.3640   10.4830   17.2610 C.3       1 POP1        0.0000
     89 H18R       11.3620   10.9630   17.1670 H         1 POP1        0.0000
     90 H18S       10.3170    9.6300   16.5510 H         1 POP1        0.0000
     91 H18T       10.2610   10.0860   18.2940 H         1 POP1        0.0000
     92 C33         7.2290    8.8370    0.1170 C.3       1 POP1        0.0000
     93 H3X         7.2070    8.3180   -0.8690 H         1 POP1        0.0000
     94 H3Y         8.0770    8.4120    0.7010 H         1 POP1        0.0000
     95 C34         7.4850   10.3330   -0.1080 C.3       1 POP1        0.0000
     96 H4X         7.5170   10.8470    0.8790 H         1 POP1        0.0000
     97 H4Y         6.6400   10.7660   -0.6880 H         1 POP1        0.0000
     98 C35         8.7980   10.6060   -0.8550 C.3       1 POP1        0.0000
     99 H5X         8.7670   10.0960   -1.8440 H         1 POP1        0.0000
    100 H5Y         9.6440   10.1720   -0.2760 H         1 POP1        0.0000
    101 C36         9.0500   12.1050   -1.0680 C.3       1 POP1        0.0000
    102 H6X         9.0890   12.6120   -0.0780 H         1 POP1        0.0000
    103 H6Y         8.1960   12.5380   -1.6370 H         1 POP1        0.0000
    104 C37        10.3520   12.3870   -1.8290 C.3       1 POP1        0.0000
    105 H7X        10.3140   11.8770   -2.8170 H         1 POP1        0.0000
    106 H7Y        11.2080   11.9600   -1.2600 H         1 POP1        0.0000
    107 C38        10.5900   13.8880   -2.0480 C.3       1 POP1        0.0000
    108 H8X        10.6410   14.3970   -1.0590 H         1 POP1        0.0000
    109 H8Y         9.7250   14.3140   -2.6040 H         1 POP1        0.0000
    110 C39        11.8780   14.1790   -2.8300 C.3       1 POP1        0.0000
    111 H9X        11.8290   13.6630   -3.8160 H         1 POP1        0.0000
    112 H9Y        12.7470   13.7620   -2.2730 H         1 POP1        0.0000
    113 C310       12.0990   15.6800   -3.0600 C.3       1 POP1        0.0000
    114 H10X       12.1580   16.1950   -2.0750 H         1 POP1        0.0000
    115 H10Y       11.2220   16.0950   -3.6070 H         1 POP1        0.0000
    116 C311       13.3730   15.9780   -3.8620 C.3       1 POP1        0.0000
    117 H11X       13.3150   15.4580   -4.8440 H         1 POP1        0.0000
    118 H11Y       14.2530   15.5710   -3.3140 H         1 POP1        0.0000
    119 C312       13.5790   17.4800   -4.1020 C.3       1 POP1        0.0000
    120 H12X       13.6420   18.0010   -3.1200 H         1 POP1        0.0000
    121 H12Y       12.6960   17.8860   -4.6440 H         1 POP1        0.0000
    122 C313       14.8460   17.7820   -4.9130 C.3       1 POP1        0.0000
    123 H13X       14.7840   17.2590   -5.8930 H         1 POP1        0.0000
    124 H13Y       15.7310   17.3800   -4.3700 H         1 POP1        0.0000
    125 C314       15.0460   19.2840   -5.1570 C.3       1 POP1        0.0000
    126 H14X       15.1080   19.8080   -4.1770 H         1 POP1        0.0000
    127 H14Y       14.1600   19.6860   -5.6990 H         1 POP1        0.0000
    128 C315       16.3100   19.5900   -5.9700 C.3       1 POP1        0.0000
    129 H15X       16.2450   19.0580   -6.9470 H         1 POP1        0.0000
    130 H15Y       17.1930   19.1810   -5.4270 H         1 POP1        0.0000
    131 C316       16.5220   21.0850   -6.2230 C.3       1 POP1        0.0000
    132 H16X       16.6130   21.6330   -5.2610 H         1 POP1        0.0000
    133 H16Y       15.6630   21.5080   -6.7870 H         1 POP1        0.0000
    134 H16Z       17.4480   21.2540   -6.8140 H         1 POP1        0.0000
@<TRIPOS>BOND
     1  129  128 1 
     2  134  131 1 
     3  133  131 1 
     4  131  128 1 
     5  131  132 1 
     6  128  130 1 
     7  128  125 1 
     8  123  122 1 
     9  127  125 1 
    10  125  122 1 
    11  125  126 1 
    12  122  124 1 
    13  122  119 1 
    14  117  116 1 
    15  121  119 1 
    16  119  116 1 
    17  119  120 1 
    18  116  118 1 
    19  116  113 1 
    20  111  110 1 
    21  115  113 1 
    22  113  110 1 
    23  113  114 1 
    24  110  112 1 
    25  110  107 1 
    26  105  104 1 
    27  109  107 1 
    28   11    9 1 
    29  107  104 1 
    30  107  108 1 
    31   99   98 1 
    32  104  106 1 
    33  104  101 1 
    34  103  101 1 
    35    9   12 1 
    36    9   10 1 
    37    9    1 1 
    38  101   98 1 
    39  101  102 1 
    40    3    2 1 
    41    6    5 1 
    42   93   92 1 
    43   98  100 1 
    44   98   95 1 
    45   97   95 1 
    46   95   92 1 
    47   95   96 1 
    48    1    5 1 
    49    1    2 1 
    50    1   13 1 
    51    5    8 1 
    52    5    7 1 
    53    2    4 1 
    54    2   17 1 
    55   92   94 1 
    56   92   42 1 
    57   44   42 1 
    58   19   17 1 
    59   41   40 2 
    60   42   40 1 
    61   42   43 1 
    62   40   39 1 
    63   17   23 1 
    64   17   18 1 
    65   13   15 1 
    66   13   16 1 
    67   13   14 1 
    68   22   20 2 
    69   38   36 1 
    70   39   36 1 
    71   23   20 1 
    72   36   37 1 
    73   36   28 1 
    74   20   24 1 
    75   20   21 1 
    76   24   25 1 
    77   29   28 1 
    78   28   25 1 
    79   28   30 1 
    80   25   27 1 
    81   25   26 1 
    82   32   31 2 
    83   30   31 1 
    84   31   33 1 
    85   46   45 1 
    86   35   33 1 
    87   33   45 1 
    88   33   34 1 
    89   45   47 1 
    90   45   48 1 
    91   52   51 1 
    92   50   48 1 
    93   48   51 1 
    94   48   49 1 
    95   51   53 1 
    96   51   54 1 
    97   58   57 1 
    98   56   54 1 
    99   54   57 1 
   100   54   55 1 
   101   57   59 1 
   102   57   60 1 
   103   64   63 1 
   104   62   60 1 
   105   60   63 1 
   106   60   61 1 
   107   63   65 2 
   108   66   65 1 
   109   65   67 1 
   110   72   70 1 
   111   67   68 1 
   112   67   70 1 
   113   67   69 1 
   114   71   70 1 
   115   70   73 1 
   116   78   76 1 
   117   73   74 1 
   118   73   76 1 
   119   73   75 1 
   120   77   76 1 
   121   76   79 1 
   122   84   82 1 
   123   79   80 1 
   124   79   82 1 
   125   79   81 1 
   126   83   82 1 
   127   82   85 1 
   128   90   88 1 
   129   85   86 1 
   130   85   88 1 
   131   85   87 1 
   132   89   88 1 
   133   88   91 1 
