@<TRIPOS>MOLECULE
C:\Users\Praveer\PycharmProjects\pdb_to_mol2_converter\data\pdb\pope.pdb
  125   124     0     0     0
SMALL
GASTEIGER

@<TRIPOS>ATOM
      1 N           0.0130   -0.0400    0.0430 N.4       1 POP1        0.0000
      2 HN1        -0.3720   -0.8890    0.4940 H         1 POP1        0.0000
      3 HN2        -0.3920    0.1060   -0.9000 H         1 POP1        0.0000
      4 HN3        -0.2930    0.8070    0.6140 H         1 POP1        0.0000
      5 C12         1.5200   -0.0110    0.0170 C.3       1 POP1        0.0000
      6 H12A        1.8610   -0.5820   -0.8700 H         1 POP1        0.0000
      7 H12B        1.8840   -0.5070    0.9420 H         1 POP1        0.0000
      8 C11         2.0490    1.4360   -0.0180 C.3       1 POP1        0.0000
      9 H11A        1.6360    1.9990   -0.8890 H         1 POP1        0.0000
     10 H11B        3.1530    1.3960   -0.1660 H         1 POP1        0.0000
     11 P           0.5640    3.0570    1.4300 P.3       1 POP1        0.0000
     12 O13         0.7870    4.2700    0.6280 O.2       1 POP1        0.0000
     13 O14        -0.6280    2.2280    1.1290 O.3       1 POP1        0.0000
     14 O11         0.6350    3.3560    2.9750 O.3       1 POP1        0.0000
     15 O12         1.8010    2.0870    1.2270 O.3       1 POP1        0.0000
     16 C1          1.7630    3.9990    3.5710 C.3       1 POP1        0.0000
     17 HA          1.4140    4.9370    4.0590 H         1 POP1        0.0000
     18 HB          2.5550    4.2880    2.8390 H         1 POP1        0.0000
     19 C2          2.3960    3.1020    4.6630 C.3       1 POP1        0.0000
     20 HS          1.5650    2.7710    5.3320 H         1 POP1        0.0000
     21 O21         3.3640    3.9060    5.3630 O.3       1 POP1        0.0000
     22 C21         3.5720    3.5670    6.6240 C.2       1 POP1        0.0000
     23 O22         2.9730    2.7120    7.2500 O.2       1 POP1        0.0000
     24 C22         4.6980    4.4390    7.1820 C.3       1 POP1        0.0000
     25 H2R         4.3730    5.4980    7.1180 H         1 POP1        0.0000
     26 H2S         5.5870    4.3010    6.5330 H         1 POP1        0.0000
     27 C3          3.0650    1.8380    4.0420 C.3       1 POP1        0.0000
     28 HX          3.8000    2.2000    3.2890 H         1 POP1        0.0000
     29 HY          2.2940    1.2640    3.4810 H         1 POP1        0.0000
     30 O31         3.7650    1.0390    5.0210 O.3       1 POP1        0.0000
     31 C31         3.0600    0.0490    5.5630 C.2       1 POP1        0.0000
     32 O32         1.9650   -0.3320    5.1920 O.2       1 POP1        0.0000
     33 C32         3.8700   -0.5540    6.7120 C.3       1 POP1        0.0000
     34 H2X         4.1100    0.2690    7.4180 H         1 POP1        0.0000
     35 H2Y         4.8170   -0.9500    6.2930 H         1 POP1        0.0000
     36 C23         5.0510    4.0810    8.6420 C.3       1 POP1        0.0000
     37 H3R         5.3500    3.0090    8.7040 H         1 POP1        0.0000
     38 H3S         4.1540    4.2170    9.2900 H         1 POP1        0.0000
     39 C24         6.1950    4.9450    9.1890 C.3       1 POP1        0.0000
     40 H4R         5.9030    6.0180    9.1350 H         1 POP1        0.0000
     41 H4S         7.0940    4.8060    8.5480 H         1 POP1        0.0000
     42 C25         6.5560    4.5960   10.6390 C.3       1 POP1        0.0000
     43 H5R         6.8240    3.5170   10.6980 H         1 POP1        0.0000
     44 H5S         5.6660    4.7600   11.2870 H         1 POP1        0.0000
     45 C26         7.7280    5.4310   11.1740 C.3       1 POP1        0.0000
     46 H6R         7.4660    6.5110   11.1150 H         1 POP1        0.0000
     47 H6S         8.6180    5.2630   10.5270 H         1 POP1        0.0000
     48 C27         8.0900    5.0800   12.6240 C.3       1 POP1        0.0000
     49 H7R         8.3160    3.9910   12.6800 H         1 POP1        0.0000
     50 H7S         7.2040    5.2770   13.2700 H         1 POP1        0.0000
     51 C28         9.2940    5.8880   13.1420 C.3       1 POP1        0.0000
     52 H8R         9.0500    6.9680   13.0320 H         1 POP1        0.0000
     53 H8S        10.1660    5.6860   12.4800 H         1 POP1        0.0000
     54 C29         9.6340    5.5220   14.5670 C.2       1 POP1        0.0000
     55 H91         9.8570    4.4560   14.7260 H         1 POP1        0.0000
     56 C210        9.6590    6.3530   15.6260 C.2       1 POP1        0.0000
     57 H101        9.9080    5.9420   16.6170 H         1 POP1        0.0000
     58 C211        9.3820    7.8360   15.6050 C.3       1 POP1        0.0000
     59 H11R        9.6800    8.2900   14.6340 H         1 POP1        0.0000
     60 H11S        9.9880    8.3460   16.3870 H         1 POP1        0.0000
     61 C212        7.8960    8.1530   15.8480 C.3       1 POP1        0.0000
     62 H12R        7.5770    7.7400   16.8320 H         1 POP1        0.0000
     63 H12S        7.2800    7.6630   15.0600 H         1 POP1        0.0000
     64 C213        7.6100    9.6620   15.8280 C.3       1 POP1        0.0000
     65 H13R        7.9460   10.0800   14.8520 H         1 POP1        0.0000
     66 H13S        8.2030   10.1560   16.6290 H         1 POP1        0.0000
     67 C214        6.1240    9.9880   16.0250 C.3       1 POP1        0.0000
     68 H14R        5.7830    9.5680   16.9980 H         1 POP1        0.0000
     69 H14S        5.5340    9.4960   15.2190 H         1 POP1        0.0000
     70 C215        5.8450   11.4970   16.0020 C.3       1 POP1        0.0000
     71 H15R        6.2060   11.9180   15.0370 H         1 POP1        0.0000
     72 H15S        6.4190   11.9860   16.8210 H         1 POP1        0.0000
     73 C216        4.3550   11.8270   16.1650 C.3       1 POP1        0.0000
     74 H16R        3.9890   11.4010   17.1260 H         1 POP1        0.0000
     75 H16S        3.7820   11.3450   15.3420 H         1 POP1        0.0000
     76 C217        4.0800   13.3370   16.1500 C.3       1 POP1        0.0000
     77 H17R        4.4630   13.7610   15.1940 H         1 POP1        0.0000
     78 H17S        4.6510   13.8130   16.9790 H         1 POP1        0.0000
     79 C218        2.5960   13.6860   16.2950 C.3       1 POP1        0.0000
     80 H18R        2.1960   13.2890   17.2530 H         1 POP1        0.0000
     81 H18S        2.0100   13.2440   15.4610 H         1 POP1        0.0000
     82 H18T        2.4510   14.7870   16.2820 H         1 POP1        0.0000
     83 C33         3.1090   -1.6710    7.4600 C.3       1 POP1        0.0000
     84 H3X         2.8600   -2.4980    6.7570 H         1 POP1        0.0000
     85 H3Y         2.1500   -1.2650    7.8560 H         1 POP1        0.0000
     86 C34         3.9270   -2.2340    8.6300 C.3       1 POP1        0.0000
     87 H4X         4.1860   -1.4020    9.3240 H         1 POP1        0.0000
     88 H4Y         4.8790   -2.6580    8.2410 H         1 POP1        0.0000
     89 C35         3.1780   -3.3190    9.4170 C.3       1 POP1        0.0000
     90 H5X         2.9150   -4.1540    8.7300 H         1 POP1        0.0000
     91 H5Y         2.2280   -2.8920    9.8110 H         1 POP1        0.0000
     92 C36         4.0050   -3.8690   10.5870 C.3       1 POP1        0.0000
     93 H6X         4.2780   -3.0290   11.2640 H         1 POP1        0.0000
     94 H6Y         4.9500   -4.3050   10.1910 H         1 POP1        0.0000
     95 C37         3.2600   -4.9400   11.3950 C.3       1 POP1        0.0000
     96 H7X         2.9820   -5.7800   10.7200 H         1 POP1        0.0000
     97 H7Y         2.3190   -4.5030   11.7980 H         1 POP1        0.0000
     98 C38         4.0990   -5.4870   12.5590 C.3       1 POP1        0.0000
     99 H8X         4.3850   -4.6440   13.2280 H         1 POP1        0.0000
    100 H8Y         5.0370   -5.9300   12.1540 H         1 POP1        0.0000
    101 C39         3.3580   -6.5490   13.3830 C.3       1 POP1        0.0000
    102 H9X         3.0670   -7.3910   12.7160 H         1 POP1        0.0000
    103 H9Y         2.4240   -6.1040   13.7940 H         1 POP1        0.0000
    104 C310        4.2070   -7.0930   14.5400 C.3       1 POP1        0.0000
    105 H10X        4.5040   -6.2490   15.2020 H         1 POP1        0.0000
    106 H10Y        5.1380   -7.5420   14.1270 H         1 POP1        0.0000
    107 C311        3.4690   -8.1480   15.3750 C.3       1 POP1        0.0000
    108 H11X        3.1700   -8.9930   14.7150 H         1 POP1        0.0000
    109 H11Y        2.5400   -7.6990   15.7920 H         1 POP1        0.0000
    110 C312        4.3260   -8.6910   16.5270 C.3       1 POP1        0.0000
    111 H12X        4.6300   -7.8450   17.1850 H         1 POP1        0.0000
    112 H12Y        5.2530   -9.1440   16.1100 H         1 POP1        0.0000
    113 C313        3.5900   -9.7410   17.3710 C.3       1 POP1        0.0000
    114 H13X        3.2850  -10.5870   16.7150 H         1 POP1        0.0000
    115 H13Y        2.6650   -9.2880   17.7910 H         1 POP1        0.0000
    116 C314        4.4510  -10.2830   18.5210 C.3       1 POP1        0.0000
    117 H14X        4.7590   -9.4370   19.1750 H         1 POP1        0.0000
    118 H14Y        5.3760  -10.7380   18.1000 H         1 POP1        0.0000
    119 C315        3.7180  -11.3310   19.3680 C.3       1 POP1        0.0000
    120 H15X        3.4070  -12.1720   18.7080 H         1 POP1        0.0000
    121 H15Y        2.7910  -10.8720   19.7820 H         1 POP1        0.0000
    122 C316        4.5660  -11.8800   20.5190 C.3       1 POP1        0.0000
    123 H16X        4.8680  -11.0600   21.2050 H         1 POP1        0.0000
    124 H16Y        5.4850  -12.3650   20.1270 H         1 POP1        0.0000
    125 H16Z        3.9920  -12.6330   21.1020 H         1 POP1        0.0000
@<TRIPOS>BOND
     1    3    1 1 
     2    9    8 1 
     3    6    5 1 
     4   10    8 1 
     5    8    5 1 
     6    8   15 1 
     7    5    1 1 
     8    5    7 1 
     9    1    2 1 
    10    1    4 1 
    11   12   11 2 
    12   13   11 1 
    13   15   11 1 
    14   11   14 1 
    15   18   16 1 
    16   14   16 1 
    17   28   27 1 
    18   29   27 1 
    19   16   17 1 
    20   16   19 1 
    21   27   19 1 
    22   27   30 1 
    23   19   20 1 
    24   19   21 1 
    25   30   31 1 
    26   32   31 2 
    27   21   22 1 
    28   31   33 1 
    29   35   33 1 
    30   26   24 1 
    31   22   24 1 
    32   22   23 2 
    33   33   34 1 
    34   33   83 1 
    35   84   83 1 
    36   25   24 1 
    37   24   36 1 
    38   83   85 1 
    39   83   86 1 
    40   88   86 1 
    41   41   39 1 
    42   86   87 1 
    43   86   89 1 
    44   36   37 1 
    45   36   39 1 
    46   36   38 1 
    47   90   89 1 
    48   40   39 1 
    49   39   42 1 
    50   89   91 1 
    51   89   92 1 
    52   94   92 1 
    53   47   45 1 
    54   92   93 1 
    55   92   95 1 
    56   42   43 1 
    57   42   45 1 
    58   42   44 1 
    59   96   95 1 
    60   46   45 1 
    61   45   48 1 
    62   95   97 1 
    63   95   98 1 
    64  100   98 1 
    65   53   51 1 
    66   98   99 1 
    67   98  101 1 
    68   48   49 1 
    69   48   51 1 
    70   48   50 1 
    71  102  101 1 
    72   52   51 1 
    73   51   54 1 
    74  101  103 1 
    75  101  104 1 
    76  106  104 1 
    77  104  105 1 
    78  104  107 1 
    79   54   55 1 
    80   54   56 2 
    81   59   58 1 
    82  108  107 1 
    83   65   64 1 
    84   71   70 1 
    85   63   61 1 
    86   77   76 1 
    87   69   67 1 
    88   75   73 1 
    89  107  109 1 
    90  107  110 1 
    91   81   79 1 
    92   58   56 1 
    93   58   61 1 
    94   58   60 1 
    95   56   57 1 
    96   64   61 1 
    97   64   67 1 
    98   64   66 1 
    99   61   62 1 
   100   70   67 1 
   101   70   73 1 
   102   70   72 1 
   103   67   68 1 
   104  112  110 1 
   105   76   73 1 
   106   76   79 1 
   107   76   78 1 
   108   73   74 1 
   109   82   79 1 
   110   79   80 1 
   111  110  111 1 
   112  110  113 1 
   113  114  113 1 
   114  113  115 1 
   115  113  116 1 
   116  118  116 1 
   117  116  117 1 
   118  116  119 1 
   119  120  119 1 
   120  119  121 1 
   121  119  122 1 
   122  124  122 1 
   123  122  125 1 
   124  122  123 1 
