@<TRIPOS>MOLECULE
C:\Users\Praveer\PycharmProjects\pdb_to_mol2_converter\data\pdb\popg.pdb
  127   126     0     0     0
SMALL
GASTEIGER

@<TRIPOS>ATOM
      1 C13         0.0070    0.0070   -0.0020 C.3       1 POP1        0.0000
      2 H13A       -0.3500   -1.0410    0.1020 H         1 POP1        0.0000
      3 H13B       -0.3620    0.5950    0.8650 H         1 POP1        0.0000
      4 OC3        -0.5130    0.5580   -1.2100 O.3       1 POP1        0.0000
      5 HO3         0.1410    0.2760   -1.8680 H         1 POP1        0.0000
      6 C12         1.5600    0.0010   -0.0060 C.3       1 POP1        0.0000
      7 H12A        1.8910   -0.5170    0.9230 H         1 POP1        0.0000
      8 OC2         2.0460   -0.7450   -1.1220 O.3       1 POP1        0.0000
      9 HO2         3.0110   -0.7930   -0.9560 H         1 POP1        0.0000
     10 C11         2.1710    1.4400   -0.0020 C.3       1 POP1        0.0000
     11 H11A        1.8860    1.9430    0.9490 H         1 POP1        0.0000
     12 H11B        1.6920    2.0060   -0.8310 H         1 POP1        0.0000
     13 P           4.5680    0.5980    0.6570 P.3       1 POP1        0.0000
     14 O13         4.1560    0.6500    2.0750 O.3       1 POP1        0.0000
     15 O14         4.5980   -0.7200   -0.0140 O.2       1 POP1        0.0000
     16 O12         3.5900    1.5100   -0.1830 O.3       1 POP1        0.0000
     17 O11         5.9510    1.3480    0.4700 O.3       1 POP1        0.0000
     18 C1          6.0710    2.7470    0.7440 C.3       1 POP1        0.0000
     19 HA          6.7930    2.8940    1.5770 H         1 POP1        0.0000
     20 HB          5.1070    3.2200    1.0580 H         1 POP1        0.0000
     21 C2          6.5910    3.5150   -0.4960 C.3       1 POP1        0.0000
     22 HS          7.6270    3.1530   -0.7010 H         1 POP1        0.0000
     23 O21         6.5520    4.9160   -0.1610 O.3       1 POP1        0.0000
     24 C21         7.4400    5.6760   -0.7710 C.2       1 POP1        0.0000
     25 O22         8.3380    5.3010   -1.5020 O.2       1 POP1        0.0000
     26 C22         7.1620    7.1350   -0.4040 C.3       1 POP1        0.0000
     27 H2R         7.2450    7.2310    0.6970 H         1 POP1        0.0000
     28 H2S         6.1190    7.3670   -0.7040 H         1 POP1        0.0000
     29 C3          5.7130    3.2210   -1.7520 C.3       1 POP1        0.0000
     30 HX          4.6620    3.4590   -1.4720 H         1 POP1        0.0000
     31 HY          5.7390    2.1280   -1.9710 H         1 POP1        0.0000
     32 O31         6.0750    4.0280   -2.8960 O.3       1 POP1        0.0000
     33 C31         7.0690    3.5410   -3.6340 C.2       1 POP1        0.0000
     34 O32         7.6190    2.4680   -3.4800 O.2       1 POP1        0.0000
     35 C32         7.4000    4.5570   -4.7280 C.3       1 POP1        0.0000
     36 H2X         7.6730    5.5100   -4.2280 H         1 POP1        0.0000
     37 H2Y         6.4850    4.7200   -5.3320 H         1 POP1        0.0000
     38 C23         8.1390    8.1090   -1.0970 C.3       1 POP1        0.0000
     39 H3R         8.0610    7.9950   -2.2030 H         1 POP1        0.0000
     40 H3S         9.1860    7.8610   -0.8080 H         1 POP1        0.0000
     41 C24         7.8580    9.5720   -0.7300 C.3       1 POP1        0.0000
     42 H4R         7.9450    9.6960    0.3720 H         1 POP1        0.0000
     43 H4S         6.8130    9.8260   -1.0180 H         1 POP1        0.0000
     44 C25         8.8180   10.5480   -1.4220 C.3       1 POP1        0.0000
     45 H5R         8.7310   10.4240   -2.5250 H         1 POP1        0.0000
     46 H5S         9.8640   10.2970   -1.1360 H         1 POP1        0.0000
     47 C26         8.5360   12.0120   -1.0590 C.3       1 POP1        0.0000
     48 H6R         8.6390   12.1420    0.0410 H         1 POP1        0.0000
     49 H6S         7.4860   12.2590   -1.3330 H         1 POP1        0.0000
     50 C27         9.4820   12.9900   -1.7710 C.3       1 POP1        0.0000
     51 H7R         9.3800   12.8460   -2.8710 H         1 POP1        0.0000
     52 H7S        10.5310   12.7410   -1.4910 H         1 POP1        0.0000
     53 C28         9.1890   14.4580   -1.4080 C.3       1 POP1        0.0000
     54 H8R         9.2720   14.5560   -0.3030 H         1 POP1        0.0000
     55 H8S         8.1320   14.6840   -1.6720 H         1 POP1        0.0000
     56 C29        10.1130   15.4030   -2.1380 C.2       1 POP1        0.0000
     57 H91        10.0380   15.3600   -3.2350 H         1 POP1        0.0000
     58 C210       11.0080   16.2450   -1.5860 C.2       1 POP1        0.0000
     59 H101       11.6290   16.8660   -2.2500 H         1 POP1        0.0000
     60 C211       11.2650   16.4460   -0.1120 C.3       1 POP1        0.0000
     61 H11R       10.3660   16.2070    0.4980 H         1 POP1        0.0000
     62 H11S       11.5020   17.5150    0.0880 H         1 POP1        0.0000
     63 C212       12.4340   15.5790    0.3890 C.3       1 POP1        0.0000
     64 H12R       13.3570   15.8220   -0.1840 H         1 POP1        0.0000
     65 H12S       12.1980   14.5040    0.2130 H         1 POP1        0.0000
     66 C213       12.7140   15.7820    1.8850 C.3       1 POP1        0.0000
     67 H13R       11.7950   15.5370    2.4630 H         1 POP1        0.0000
     68 H13S       12.9550   16.8530    2.0690 H         1 POP1        0.0000
     69 C214       13.8730   14.9120    2.3920 C.3       1 POP1        0.0000
     70 H14R       14.7920   15.1580    1.8140 H         1 POP1        0.0000
     71 H14S       13.6320   13.8410    2.2050 H         1 POP1        0.0000
     72 C215       14.1510   15.1100    3.8880 C.3       1 POP1        0.0000
     73 H15R       13.2320   14.8610    4.4650 H         1 POP1        0.0000
     74 H15S       14.3880   16.1810    4.0750 H         1 POP1        0.0000
     75 C216       15.3120   14.2430    4.3930 C.3       1 POP1        0.0000
     76 H16R       16.2300   14.4900    3.8140 H         1 POP1        0.0000
     77 H16S       15.0740   13.1710    4.2070 H         1 POP1        0.0000
     78 C217       15.5930   14.4410    5.8880 C.3       1 POP1        0.0000
     79 H17R       14.6710   14.1960    6.4620 H         1 POP1        0.0000
     80 H17S       15.8230   15.5160    6.0690 H         1 POP1        0.0000
     81 C218       16.7510   13.5840    6.4070 C.3       1 POP1        0.0000
     82 H18R       17.6900   13.8290    5.8640 H         1 POP1        0.0000
     83 H18S       16.5330   12.5050    6.2590 H         1 POP1        0.0000
     84 H18T       16.9160   13.7640    7.4910 H         1 POP1        0.0000
     85 C33         8.5620    4.0940   -5.6350 C.3       1 POP1        0.0000
     86 H3X         8.3010    3.1240   -6.1160 H         1 POP1        0.0000
     87 H3Y         9.4720    3.9260   -5.0130 H         1 POP1        0.0000
     88 C34         8.8880    5.1230   -6.7250 C.3       1 POP1        0.0000
     89 H4X         9.1460    6.0920   -6.2430 H         1 POP1        0.0000
     90 H4Y         7.9840    5.2870   -7.3540 H         1 POP1        0.0000
     91 C35        10.0530    4.6870   -7.6250 C.3       1 POP1        0.0000
     92 H5X         9.7990    3.7160   -8.1060 H         1 POP1        0.0000
     93 H5Y        10.9570    4.5260   -6.9950 H         1 POP1        0.0000
     94 C36        10.3740    5.7210   -8.7130 C.3       1 POP1        0.0000
     95 H6X        10.6190    6.6930   -8.2280 H         1 POP1        0.0000
     96 H6Y         9.4710    5.8760   -9.3450 H         1 POP1        0.0000
     97 C37        11.5460    5.2970   -9.6080 C.3       1 POP1        0.0000
     98 H7X        11.3030    4.3250  -10.0920 H         1 POP1        0.0000
     99 H7Y        12.4490    5.1440   -8.9750 H         1 POP1        0.0000
    100 C38        11.8640    6.3340  -10.6940 C.3       1 POP1        0.0000
    101 H8X        12.1020    7.3080  -10.2090 H         1 POP1        0.0000
    102 H8Y        10.9630    6.4840  -11.3300 H         1 POP1        0.0000
    103 C39        13.0430    5.9170  -11.5840 C.3       1 POP1        0.0000
    104 H9X        12.8070    4.9430  -12.0680 H         1 POP1        0.0000
    105 H9Y        13.9450    5.7690  -10.9480 H         1 POP1        0.0000
    106 C310       13.3600    6.9540  -12.6710 C.3       1 POP1        0.0000
    107 H10X       13.5910    7.9300  -12.1870 H         1 POP1        0.0000
    108 H10Y       12.4600    7.0980  -13.3100 H         1 POP1        0.0000
    109 C311       14.5440    6.5420  -13.5570 C.3       1 POP1        0.0000
    110 H11X       14.3150    5.5670  -14.0410 H         1 POP1        0.0000
    111 H11Y       15.4440    6.3990  -12.9170 H         1 POP1        0.0000
    112 C312       14.8600    7.5810  -14.6420 C.3       1 POP1        0.0000
    113 H12X       15.0840    8.5570  -14.1570 H         1 POP1        0.0000
    114 H12Y       13.9620    7.7210  -15.2840 H         1 POP1        0.0000
    115 C313       16.0490    7.1750  -15.5240 C.3       1 POP1        0.0000
    116 H13X       15.8250    6.1990  -16.0100 H         1 POP1        0.0000
    117 H13Y       16.9470    7.0350  -14.8820 H         1 POP1        0.0000
    118 C314       16.3640    8.2160  -16.6080 C.3       1 POP1        0.0000
    119 H14X       16.5840    9.1930  -16.1220 H         1 POP1        0.0000
    120 H14Y       15.4660    8.3540  -17.2520 H         1 POP1        0.0000
    121 C315       17.5550    7.8140  -17.4880 C.3       1 POP1        0.0000
    122 H15X       17.3320    6.8340  -17.9670 H         1 POP1        0.0000
    123 H15Y       18.4480    7.6720  -16.8380 H         1 POP1        0.0000
    124 C316       17.8810    8.8430  -18.5740 C.3       1 POP1        0.0000
    125 H16X       18.1310    9.8250  -18.1170 H         1 POP1        0.0000
    126 H16Y       17.0110    8.9830  -19.2510 H         1 POP1        0.0000
    127 H16Z       18.7490    8.5080  -19.1820 H         1 POP1        0.0000
@<TRIPOS>BOND
     1  126  124 1 
     2  127  124 1 
     3  124  125 1 
     4  124  121 1 
     5  122  121 1 
     6  121  123 1 
     7  121  118 1 
     8  120  118 1 
     9  118  119 1 
    10  118  115 1 
    11  116  115 1 
    12  115  117 1 
    13  115  112 1 
    14  114  112 1 
    15  112  113 1 
    16  112  109 1 
    17  110  109 1 
    18  109  111 1 
    19  109  106 1 
    20  108  106 1 
    21  106  107 1 
    22  106  103 1 
    23  104  103 1 
    24  103  105 1 
    25  103  100 1 
    26  102  100 1 
    27  100  101 1 
    28  100   97 1 
    29   98   97 1 
    30   97   99 1 
    31   97   94 1 
    32   96   94 1 
    33   94   95 1 
    34   94   91 1 
    35   92   91 1 
    36   91   93 1 
    37   91   88 1 
    38   90   88 1 
    39   88   89 1 
    40   88   85 1 
    41   86   85 1 
    42   85   87 1 
    43   85   35 1 
    44   37   35 1 
    45   35   36 1 
    46   35   33 1 
    47   33   34 2 
    48   33   32 1 
    49   57   56 1 
    50   32   29 1 
    51   51   50 1 
    52   45   44 1 
    53   59   58 1 
    54   39   38 1 
    55   56   58 2 
    56   56   53 1 
    57   31   29 1 
    58    5    4 1 
    59   50   52 1 
    60   50   53 1 
    61   50   47 1 
    62   29   30 1 
    63   29   21 1 
    64   55   53 1 
    65   58   60 1 
    66   25   24 2 
    67   44   46 1 
    68   44   47 1 
    69   44   41 1 
    70   53   54 1 
    71   49   47 1 
    72    4    1 1 
    73    8    9 1 
    74    8    6 1 
    75   38   40 1 
    76   38   41 1 
    77   38   26 1 
    78   47   48 1 
    79   43   41 1 
    80   12   10 1 
    81   24   26 1 
    82   24   23 1 
    83   41   42 1 
    84   28   26 1 
    85   22   21 1 
    86   21   23 1 
    87   21   18 1 
    88   26   27 1 
    89   64   63 1 
    90   16   10 1 
    91   16   13 1 
    92   60   62 1 
    93   60   63 1 
    94   60   61 1 
    95   15   13 2 
    96    6    1 1 
    97    6   10 1 
    98    6    7 1 
    99    1    2 1 
   100    1    3 1 
   101   10   11 1 
   102   65   63 1 
   103   63   66 1 
   104   17   13 1 
   105   17   18 1 
   106   13   14 1 
   107   18   20 1 
   108   18   19 1 
   109   70   69 1 
   110   66   68 1 
   111   66   69 1 
   112   66   67 1 
   113   71   69 1 
   114   69   72 1 
   115   76   75 1 
   116   72   74 1 
   117   72   75 1 
   118   72   73 1 
   119   77   75 1 
   120   75   78 1 
   121   82   81 1 
   122   78   80 1 
   123   78   81 1 
   124   78   79 1 
   125   83   81 1 
   126   81   84 1 
