@<TRIPOS>MOLECULE
C:\Users\Praveer\PycharmProjects\pdb_to_mol2_converter\data\pdb\popi2c.pdb
  144   144     0     0     0
SMALL
GASTEIGER

@<TRIPOS>ATOM
      1 C12         1.8060   -0.0050    0.3300 C.3       1 POP1        0.0000
      2 H2          2.1460   -0.6960   -0.4800 H         1 POP1        0.0000
      3 O2          2.2260   -0.5540    1.5800 O.3       1 POP1        0.0000
      4 HO2         1.8990   -1.4700    1.6160 H         1 POP1        0.0000
      5 C13         2.4330    1.3590    0.0360 C.3       1 POP1        0.0000
      6 H3          2.0200    1.7390   -0.9360 H         1 POP1        0.0000
      7 O3          3.8670    1.2230   -0.0070 O.3       1 POP1        0.0000
      8 P3          4.6300    1.1240   -1.4560 P.3       1 POP1        0.0000
      9 OP32        4.8340    2.6550   -1.8410 O.3       1 POP1        0.0000
     10 HP32        4.1600    3.2420   -1.4460 H         1 POP1        0.0000
     11 OP33        6.0000    0.4810   -1.2600 O.3       1 POP1        0.0000
     12 OP34        3.7200    0.4480   -2.4750 O.2       1 POP1        0.0000
     13 C14         2.0050    2.3740    1.0920 C.3       1 POP1        0.0000
     14 H4          2.4540    1.9860    2.0400 H         1 POP1        0.0000
     15 O4          2.5880    3.6540    0.8840 O.3       1 POP1        0.0000
     16 P4          2.1990    4.9090   -0.0910 P.3       1 POP1        0.0000
     17 OP42        1.9120    6.0490    0.8830 O.3       1 POP1        0.0000
     18 OP43        0.9760    4.5190   -0.9100 O.3       1 POP1        0.0000
     19 OP44        3.4340    5.1480   -0.9500 O.2       1 POP1        0.0000
     20 C15         0.4970    2.4130    1.3520 C.3       1 POP1        0.0000
     21 H5          0.0450    2.9630    0.4980 H         1 POP1        0.0000
     22 O5          0.2320    3.2160    2.4980 O.3       1 POP1        0.0000
     23 HO5         0.6350    4.0560    2.2160 H         1 POP1        0.0000
     24 C16        -0.2340    1.0570    1.3370 C.3       1 POP1        0.0000
     25 H6         -0.0550    0.6100    2.3440 H         1 POP1        0.0000
     26 O6         -1.6390    1.1970    1.1450 O.3       1 POP1        0.0000
     27 HO6        -1.9060    0.2980    0.9270 H         1 POP1        0.0000
     28 C11         0.2880    0.0900    0.2740 C.3       1 POP1        0.0000
     29 H1          0.0850    0.5880   -0.7090 H         1 POP1        0.0000
     30 P          -0.4850   -2.2700    1.4360 P.3       1 POP1        0.0000
     31 O13        -1.2100   -1.7080    2.5940 O.3       1 POP1        0.0000
     32 O14         0.8500   -2.8650    1.6760 O.2       1 POP1        0.0000
     33 O12        -0.4020   -1.1770    0.2090 O.3       1 POP1        0.0000
     34 O11        -1.4080   -3.4150    0.8360 O.3       1 POP1        0.0000
     35 C1         -1.8980   -4.4150    1.7420 C.3       1 POP1        0.0000
     36 HA         -2.9420   -4.1750    2.0410 H         1 POP1        0.0000
     37 HB         -1.2940   -4.4960    2.6810 H         1 POP1        0.0000
     38 C2         -1.8620   -5.8030    1.0700 C.3       1 POP1        0.0000
     39 HS         -2.6480   -5.8000    0.2770 H         1 POP1        0.0000
     40 O21        -2.1050   -6.7870    2.0970 O.3       1 POP1        0.0000
     41 C21        -2.6920   -7.8940    1.6860 C.2       1 POP1        0.0000
     42 O22        -3.1240   -8.1110    0.5670 O.2       1 POP1        0.0000
     43 C22        -2.7580   -8.8830    2.8520 C.3       1 POP1        0.0000
     44 H2R        -3.2500   -8.3730    3.7050 H         1 POP1        0.0000
     45 H2S        -1.7180   -9.1370    3.1400 H         1 POP1        0.0000
     46 C3         -0.4770   -6.0460    0.3990 C.3       1 POP1        0.0000
     47 HX          0.2940   -5.9660    1.2000 H         1 POP1        0.0000
     48 HY         -0.2670   -5.2210   -0.3200 H         1 POP1        0.0000
     49 O31        -0.3860   -7.3480   -0.2250 O.3       1 POP1        0.0000
     50 C31        -0.9420   -7.4120   -1.4330 C.2       1 POP1        0.0000
     51 O32        -1.3870   -6.4760   -2.0680 O.2       1 POP1        0.0000
     52 C32        -0.9390   -8.8660   -1.8960 C.3       1 POP1        0.0000
     53 H2X        -1.5180   -9.4520   -1.1520 H         1 POP1        0.0000
     54 H2Y         0.1080   -9.2290   -1.9030 H         1 POP1        0.0000
     55 C23        -3.5350  -10.1650    2.4720 C.3       1 POP1        0.0000
     56 H3R        -3.0260  -10.6660    1.6170 H         1 POP1        0.0000
     57 H3S        -4.5610   -9.8900    2.1340 H         1 POP1        0.0000
     58 C24        -3.6560  -11.1680    3.6290 C.3       1 POP1        0.0000
     59 H4R        -4.1750  -10.6810    4.4850 H         1 POP1        0.0000
     60 H4S        -2.6380  -11.4610    3.9690 H         1 POP1        0.0000
     61 C25        -4.4350  -12.4300    3.2230 C.3       1 POP1        0.0000
     62 H5R        -3.9200  -12.9060    2.3580 H         1 POP1        0.0000
     63 H5S        -5.4540  -12.1340    2.8860 H         1 POP1        0.0000
     64 C26        -4.5650  -13.4630    4.3530 C.3       1 POP1        0.0000
     65 H6R        -5.0980  -13.0000    5.2140 H         1 POP1        0.0000
     66 H6S        -3.5490  -13.7540    4.7000 H         1 POP1        0.0000
     67 C27        -5.3270  -14.7240    3.9090 C.3       1 POP1        0.0000
     68 H7R        -4.8020  -15.1630    3.0310 H         1 POP1        0.0000
     69 H7S        -6.3470  -14.4220    3.5800 H         1 POP1        0.0000
     70 C28        -5.4420  -15.7830    5.0230 C.3       1 POP1        0.0000
     71 H8R        -5.9160  -15.2990    5.9050 H         1 POP1        0.0000
     72 H8S        -4.4160  -16.0840    5.3320 H         1 POP1        0.0000
     73 C29        -6.2140  -16.9980    4.5610 C.2       1 POP1        0.0000
     74 H91        -5.7780  -17.5150    3.6910 H         1 POP1        0.0000
     75 C210       -7.3610  -17.4730    5.0830 C.2       1 POP1        0.0000
     76 H101       -7.8210  -18.3650    4.6300 H         1 POP1        0.0000
     77 C211       -8.1090  -16.9080    6.2650 C.3       1 POP1        0.0000
     78 H11R       -7.4130  -16.4450    7.0010 H         1 POP1        0.0000
     79 H11S       -8.6380  -17.7250    6.8060 H         1 POP1        0.0000
     80 C212       -9.1430  -15.8470    5.8480 C.3       1 POP1        0.0000
     81 H12R       -9.8730  -16.2920    5.1340 H         1 POP1        0.0000
     82 H12S       -8.6240  -15.0100    5.3250 H         1 POP1        0.0000
     83 C213       -9.9090  -15.2780    7.0500 C.3       1 POP1        0.0000
     84 H13R       -9.1830  -14.8270    7.7630 H         1 POP1        0.0000
     85 H13S      -10.4270  -16.1110    7.5770 H         1 POP1        0.0000
     86 C214      -10.9450  -14.2190    6.6510 C.3       1 POP1        0.0000
     87 H14R      -11.6640  -14.6660    5.9280 H         1 POP1        0.0000
     88 H14S      -10.4270  -13.3780    6.1370 H         1 POP1        0.0000
     89 C215      -11.7190  -13.6730    7.8580 C.3       1 POP1        0.0000
     90 H15R      -10.9990  -13.2280    8.5810 H         1 POP1        0.0000
     91 H15S      -12.2350  -14.5170    8.3690 H         1 POP1        0.0000
     92 C216      -12.7580  -12.6130    7.4670 C.3       1 POP1        0.0000
     93 H16R      -13.4750  -13.0560    6.7400 H         1 POP1        0.0000
     94 H16S      -12.2420  -11.7660    6.9610 H         1 POP1        0.0000
     95 C217      -13.5370  -12.0770    8.6750 C.3       1 POP1        0.0000
     96 H17R      -12.8140  -11.6430    9.4030 H         1 POP1        0.0000
     97 H17S      -14.0470  -12.9290    9.1790 H         1 POP1        0.0000
     98 C218      -14.5760  -11.0160    8.3040 C.3       1 POP1        0.0000
     99 H18R      -15.3220  -11.4350    7.5950 H         1 POP1        0.0000
    100 H18S      -14.0860  -10.1430    7.8220 H         1 POP1        0.0000
    101 H18T      -15.1130  -10.6620    9.2100 H         1 POP1        0.0000
    102 C33        -1.5780   -9.0210   -3.2920 C.3       1 POP1        0.0000
    103 H3X        -0.9770   -8.4600   -4.0430 H         1 POP1        0.0000
    104 H3Y        -2.6020   -8.5780   -3.2830 H         1 POP1        0.0000
    105 C34        -1.6870  -10.4870   -3.7210 C.3       1 POP1        0.0000
    106 H4X        -2.3180  -11.0350   -2.9860 H         1 POP1        0.0000
    107 H4Y        -0.6740  -10.9490   -3.7110 H         1 POP1        0.0000
    108 C35        -2.2960  -10.6430   -5.1200 C.3       1 POP1        0.0000
    109 H5X        -1.6620  -10.0990   -5.8560 H         1 POP1        0.0000
    110 H5Y        -3.3070  -10.1750   -5.1340 H         1 POP1        0.0000
    111 C36        -2.4140  -12.1120   -5.5450 C.3       1 POP1        0.0000
    112 H6X        -3.0630  -12.6500   -4.8180 H         1 POP1        0.0000
    113 H6Y        -1.4050  -12.5800   -5.5100 H         1 POP1        0.0000
    114 C37        -2.9930  -12.2790   -6.9550 C.3       1 POP1        0.0000
    115 H7X        -2.3480  -11.7350   -7.6820 H         1 POP1        0.0000
    116 H7Y        -4.0070  -11.8210   -6.9930 H         1 POP1        0.0000
    117 C38        -3.0870  -13.7520   -7.3710 C.3       1 POP1        0.0000
    118 H8X        -3.7430  -14.2930   -6.6510 H         1 POP1        0.0000
    119 H8Y        -2.0740  -14.2090   -7.3140 H         1 POP1        0.0000
    120 C39        -3.6380  -13.9370   -8.7890 C.3       1 POP1        0.0000
    121 H9X        -2.9870  -13.3920   -9.5080 H         1 POP1        0.0000
    122 H9Y        -4.6570  -13.4920   -8.8490 H         1 POP1        0.0000
    123 C310       -3.7080  -15.4140   -9.1970 C.3       1 POP1        0.0000
    124 H10X       -4.3670  -15.9590   -8.4850 H         1 POP1        0.0000
    125 H10Y       -2.6900  -15.8600   -9.1240 H         1 POP1        0.0000
    126 C311       -4.2370  -15.6100  -10.6230 C.3       1 POP1        0.0000
    127 H11X       -3.5800  -15.0600  -11.3340 H         1 POP1        0.0000
    128 H11Y       -5.2580  -15.1720  -10.6970 H         1 POP1        0.0000
    129 C312       -4.2900  -17.0880  -11.0290 C.3       1 POP1        0.0000
    130 H12X       -4.9510  -17.6370  -10.3210 H         1 POP1        0.0000
    131 H12Y       -3.2690  -17.5240  -10.9470 H         1 POP1        0.0000
    132 C313       -4.8080  -17.2860  -12.4580 C.3       1 POP1        0.0000
    133 H13X       -4.1480  -16.7340  -13.1650 H         1 POP1        0.0000
    134 H13Y       -5.8300  -16.8530  -12.5400 H         1 POP1        0.0000
    135 C314       -4.8540  -18.7650  -12.8650 C.3       1 POP1        0.0000
    136 H14X       -5.5140  -19.3170  -12.1590 H         1 POP1        0.0000
    137 H14Y       -3.8310  -19.1970  -12.7810 H         1 POP1        0.0000
    138 C315       -5.3680  -18.9670  -14.2950 C.3       1 POP1        0.0000
    139 H15X       -4.7080  -18.4060  -14.9960 H         1 POP1        0.0000
    140 H15Y       -6.3890  -18.5280  -14.3750 H         1 POP1        0.0000
    141 C316       -5.4180  -20.4370  -14.7170 C.3       1 POP1        0.0000
    142 H16X       -6.0900  -21.0110  -14.0430 H         1 POP1        0.0000
    143 H16Y       -4.4040  -20.8890  -14.6670 H         1 POP1        0.0000
    144 H16Z       -5.7960  -20.5330  -15.7570 H         1 POP1        0.0000
@<TRIPOS>BOND
     1  144  141 1 
     2  139  138 1 
     3  141  143 1 
     4  141  138 1 
     5  141  142 1 
     6  140  138 1 
     7  138  135 1 
     8  133  132 1 
     9  135  137 1 
    10  135  132 1 
    11  135  136 1 
    12  134  132 1 
    13  132  129 1 
    14  127  126 1 
    15  129  131 1 
    16  129  126 1 
    17  129  130 1 
    18  128  126 1 
    19  126  123 1 
    20  121  120 1 
    21  123  125 1 
    22  123  120 1 
    23  123  124 1 
    24  122  120 1 
    25  120  117 1 
    26  115  114 1 
    27  117  119 1 
    28  117  114 1 
    29  117  118 1 
    30  116  114 1 
    31  114  111 1 
    32  109  108 1 
    33  111  113 1 
    34  111  108 1 
    35  111  112 1 
    36  110  108 1 
    37  108  105 1 
    38  103  102 1 
    39  105  107 1 
    40  105  102 1 
    41  105  106 1 
    42  102  104 1 
    43  102   52 1 
    44   12    8 2 
    45   51   50 2 
    46   54   52 1 
    47   52   50 1 
    48   52   53 1 
    49    9    8 1 
    50    9   10 1 
    51    8   11 1 
    52    8    7 1 
    53   50   49 1 
    54   19   16 2 
    55    6    5 1 
    56   18   16 1 
    57   29   28 1 
    58    2    1 1 
    59   48   46 1 
    60   49   46 1 
    61   16   17 1 
    62   16   15 1 
    63    7    5 1 
    64    5    1 1 
    65    5   13 1 
    66   33   28 1 
    67   33   30 1 
    68   28    1 1 
    69   28   24 1 
    70   39   38 1 
    71    1    3 1 
    72   46   38 1 
    73   46   47 1 
    74   21   20 1 
    75   42   41 2 
    76   34   30 1 
    77   34   35 1 
    78   15   13 1 
    79   27   26 1 
    80   38   35 1 
    81   38   40 1 
    82   13   20 1 
    83   13   14 1 
    84   26   24 1 
    85   24   20 1 
    86   24   25 1 
    87   20   22 1 
    88   30   32 2 
    89   30   31 1 
    90    3    4 1 
    91   56   55 1 
    92   41   40 1 
    93   41   43 1 
    94   35   36 1 
    95   35   37 1 
    96   57   55 1 
    97   23   22 1 
    98   62   61 1 
    99   55   43 1 
   100   55   58 1 
   101   43   45 1 
   102   43   44 1 
   103   63   61 1 
   104   68   67 1 
   105   61   58 1 
   106   61   64 1 
   107   69   67 1 
   108   58   60 1 
   109   58   59 1 
   110   74   73 1 
   111   67   64 1 
   112   67   70 1 
   113   64   66 1 
   114   64   65 1 
   115   73   70 1 
   116   73   75 2 
   117   76   75 1 
   118   70   72 1 
   119   70   71 1 
   120   75   77 1 
   121   81   80 1 
   122   82   80 1 
   123   80   77 1 
   124   80   83 1 
   125   87   86 1 
   126   88   86 1 
   127   77   79 1 
   128   77   78 1 
   129   86   83 1 
   130   86   89 1 
   131   93   92 1 
   132   94   92 1 
   133   83   85 1 
   134   83   84 1 
   135   92   89 1 
   136   92   95 1 
   137   99   98 1 
   138  100   98 1 
   139   89   91 1 
   140   89   90 1 
   141   98   95 1 
   142   98  101 1 
   143   95   97 1 
   144   95   96 1 
