@<TRIPOS>MOLECULE
C:\Users\Praveer\PycharmProjects\pdb_to_mol2_converter\data\pdb\popi2b.pdb
  144   144     0     0     0
SMALL
GASTEIGER

@<TRIPOS>ATOM
      1 C12         1.6640   -0.0110    0.3690 C.3       1 POP1        0.0000
      2 H2          2.1020   -0.7660   -0.3310 H         1 POP1        0.0000
      3 O2          2.0510   -0.3820    1.6890 O.3       1 POP1        0.0000
      4 HO2         1.8920   -1.3330    1.7470 H         1 POP1        0.0000
      5 C13         2.2010    1.3330   -0.0500 C.3       1 POP1        0.0000
      6 H3          1.7510    1.5400   -1.0560 H         1 POP1        0.0000
      7 O3          3.6400    1.2650   -0.1390 O.3       1 POP1        0.0000
      8 P3          4.3830    1.9000   -1.4800 P.3       1 POP1        0.0000
      9 OP32        3.9020    3.3440   -1.5110 O.3       1 POP1        0.0000
     10 OP33        5.8850    1.7660   -1.2500 O.3       1 POP1        0.0000
     11 OP34        3.8840    1.0730   -2.6610 O.2       1 POP1        0.0000
     12 C14         1.7070    2.4170    0.8900 C.3       1 POP1        0.0000
     13 H4          2.2130    2.2360    1.8690 H         1 POP1        0.0000
     14 O4          2.1220    3.6960    0.4210 O.3       1 POP1        0.0000
     15 HO4         2.7930    3.5210   -0.2930 H         1 POP1        0.0000
     16 C15         0.1870    2.3860    1.1800 C.3       1 POP1        0.0000
     17 H5         -0.1920    2.9810    0.3060 H         1 POP1        0.0000
     18 O5         -0.1310    3.0860    2.4040 O.3       1 POP1        0.0000
     19 P5         -1.6090    3.7250    2.7230 P.3       1 POP1        0.0000
     20 OP52       -1.7850    4.7130    1.4870 O.3       1 POP1        0.0000
     21 HP52       -1.5850    4.2140    0.6880 H         1 POP1        0.0000
     22 OP53       -2.6820    2.6530    2.5970 O.2       1 POP1        0.0000
     23 OP54       -1.5770    4.5350    4.0100 O.3       1 POP1        0.0000
     24 C16        -0.5380    1.0330    1.0110 C.3       1 POP1        0.0000
     25 H6         -0.5710    0.6180    2.0480 H         1 POP1        0.0000
     26 O6         -1.8870    1.2190    0.5860 O.3       1 POP1        0.0000
     27 HO6        -2.3400    1.6010    1.3690 H         1 POP1        0.0000
     28 C11         0.1590   -0.0290    0.1720 C.3       1 POP1        0.0000
     29 H1          0.0080    0.3220   -0.8810 H         1 POP1        0.0000
     30 P          -0.4210   -2.3720    1.4580 P.3       1 POP1        0.0000
     31 O13        -0.9590   -1.7970    2.7070 O.3       1 POP1        0.0000
     32 O14         0.9140   -3.0120    1.5360 O.2       1 POP1        0.0000
     33 O12        -0.4510   -1.3250    0.2020 O.3       1 POP1        0.0000
     34 O11        -1.4520   -3.4750    0.9800 O.3       1 POP1        0.0000
     35 C1         -1.8290   -4.4990    1.8980 C.3       1 POP1        0.0000
     36 HA         -2.8490   -4.2910    2.2880 H         1 POP1        0.0000
     37 HB         -1.1400   -4.5910    2.7770 H         1 POP1        0.0000
     38 C2         -1.8190   -5.8440    1.1570 C.3       1 POP1        0.0000
     39 HS         -2.6310   -5.8000    0.3930 H         1 POP1        0.0000
     40 O21        -2.0330   -6.8640    2.1480 O.3       1 POP1        0.0000
     41 C21        -2.6660   -7.9320    1.7210 C.2       1 POP1        0.0000
     42 O22        -3.1240   -8.1140    0.6080 O.2       1 POP1        0.0000
     43 C22        -2.7510   -8.9260    2.8760 C.3       1 POP1        0.0000
     44 H2R        -3.2430   -8.4140    3.7290 H         1 POP1        0.0000
     45 H2S        -1.7140   -9.1920    3.1700 H         1 POP1        0.0000
     46 C3         -0.4600   -6.0540    0.4210 C.3       1 POP1        0.0000
     47 HX          0.3420   -5.9740    1.1880 H         1 POP1        0.0000
     48 HY         -0.2900   -5.2120   -0.2920 H         1 POP1        0.0000
     49 O31        -0.3750   -7.3470   -0.2180 O.3       1 POP1        0.0000
     50 C31        -0.9550   -7.4070   -1.4120 C.2       1 POP1        0.0000
     51 O32        -1.4200   -6.4690   -2.0340 O.2       1 POP1        0.0000
     52 C32        -0.9530   -8.8570   -1.8850 C.3       1 POP1        0.0000
     53 H2X        -1.5380   -9.4450   -1.1460 H         1 POP1        0.0000
     54 H2Y         0.0940   -9.2210   -1.8890 H         1 POP1        0.0000
     55 C23        -3.5390  -10.1900    2.4790 C.3       1 POP1        0.0000
     56 H3R        -3.0320  -10.6890    1.6220 H         1 POP1        0.0000
     57 H3S        -4.5620   -9.9020    2.1410 H         1 POP1        0.0000
     58 C24        -3.6670  -11.1920    3.6320 C.3       1 POP1        0.0000
     59 H4R        -4.1870  -10.7050    4.4870 H         1 POP1        0.0000
     60 H4S        -2.6510  -11.4890    3.9760 H         1 POP1        0.0000
     61 C25        -4.4450  -12.4470    3.2170 C.3       1 POP1        0.0000
     62 H5R        -3.9300  -12.9230    2.3530 H         1 POP1        0.0000
     63 H5S        -5.4640  -12.1490    2.8790 H         1 POP1        0.0000
     64 C26        -4.5730  -13.4730    4.3500 C.3       1 POP1        0.0000
     65 H6R        -5.1040  -13.0070    5.2090 H         1 POP1        0.0000
     66 H6S        -3.5560  -13.7630    4.6950 H         1 POP1        0.0000
     67 C27        -5.3340  -14.7320    3.9080 C.3       1 POP1        0.0000
     68 H7R        -4.8090  -15.1720    3.0300 H         1 POP1        0.0000
     69 H7S        -6.3550  -14.4300    3.5790 H         1 POP1        0.0000
     70 C28        -5.4450  -15.7830    5.0270 C.3       1 POP1        0.0000
     71 H8R        -5.9230  -15.2950    5.9060 H         1 POP1        0.0000
     72 H8S        -4.4190  -16.0780    5.3400 H         1 POP1        0.0000
     73 C29        -6.2120  -16.9980    4.5630 C.2       1 POP1        0.0000
     74 H91        -5.7750  -17.5110    3.6920 H         1 POP1        0.0000
     75 C210       -7.3600  -17.4730    5.0820 C.2       1 POP1        0.0000
     76 H101       -7.8200  -18.3640    4.6260 H         1 POP1        0.0000
     77 C211       -8.1080  -16.9080    6.2650 C.3       1 POP1        0.0000
     78 H11R       -7.4130  -16.4460    7.0010 H         1 POP1        0.0000
     79 H11S       -8.6360  -17.7260    6.8040 H         1 POP1        0.0000
     80 C212       -9.1420  -15.8470    5.8470 C.3       1 POP1        0.0000
     81 H12R       -9.8720  -16.2920    5.1340 H         1 POP1        0.0000
     82 H12S       -8.6240  -15.0100    5.3250 H         1 POP1        0.0000
     83 C213       -9.9090  -15.2780    7.0500 C.3       1 POP1        0.0000
     84 H13R       -9.1830  -14.8270    7.7630 H         1 POP1        0.0000
     85 H13S      -10.4270  -16.1110    7.5760 H         1 POP1        0.0000
     86 C214      -10.9440  -14.2190    6.6510 C.3       1 POP1        0.0000
     87 H14R      -11.6630  -14.6650    5.9280 H         1 POP1        0.0000
     88 H14S      -10.4270  -13.3770    6.1370 H         1 POP1        0.0000
     89 C215      -11.7190  -13.6730    7.8580 C.3       1 POP1        0.0000
     90 H15R      -10.9990  -13.2290    8.5810 H         1 POP1        0.0000
     91 H15S      -12.2350  -14.5170    8.3690 H         1 POP1        0.0000
     92 C216      -12.7570  -12.6130    7.4670 C.3       1 POP1        0.0000
     93 H16R      -13.4740  -13.0550    6.7400 H         1 POP1        0.0000
     94 H16S      -12.2420  -11.7660    6.9620 H         1 POP1        0.0000
     95 C217      -13.5370  -12.0770    8.6750 C.3       1 POP1        0.0000
     96 H17R      -12.8140  -11.6440    9.4040 H         1 POP1        0.0000
     97 H17S      -14.0470  -12.9300    9.1790 H         1 POP1        0.0000
     98 C218      -14.5760  -11.0170    8.3040 C.3       1 POP1        0.0000
     99 H18R      -15.3220  -11.4350    7.5950 H         1 POP1        0.0000
    100 H18S      -14.0850  -10.1440    7.8230 H         1 POP1        0.0000
    101 H18T      -15.1130  -10.6620    9.2100 H         1 POP1        0.0000
    102 C33        -1.5850   -9.0090   -3.2850 C.3       1 POP1        0.0000
    103 H3X        -0.9810   -8.4460   -4.0330 H         1 POP1        0.0000
    104 H3Y        -2.6090   -8.5680   -3.2810 H         1 POP1        0.0000
    105 C34        -1.6880  -10.4760   -3.7150 C.3       1 POP1        0.0000
    106 H4X        -2.3180  -11.0260   -2.9800 H         1 POP1        0.0000
    107 H4Y        -0.6740  -10.9340   -3.7030 H         1 POP1        0.0000
    108 C35        -2.2950  -10.6350   -5.1150 C.3       1 POP1        0.0000
    109 H5X        -1.6600  -10.0910   -5.8500 H         1 POP1        0.0000
    110 H5Y        -3.3060  -10.1690   -5.1300 H         1 POP1        0.0000
    111 C36        -2.4110  -12.1050   -5.5380 C.3       1 POP1        0.0000
    112 H6X        -3.0590  -12.6430   -4.8100 H         1 POP1        0.0000
    113 H6Y        -1.4010  -12.5720   -5.5030 H         1 POP1        0.0000
    114 C37        -2.9900  -12.2740   -6.9480 C.3       1 POP1        0.0000
    115 H7X        -2.3450  -11.7310   -7.6750 H         1 POP1        0.0000
    116 H7Y        -4.0040  -11.8160   -6.9860 H         1 POP1        0.0000
    117 C38        -3.0850  -13.7480   -7.3640 C.3       1 POP1        0.0000
    118 H8X        -3.7410  -14.2880   -6.6450 H         1 POP1        0.0000
    119 H8Y        -2.0720  -14.2050   -7.3080 H         1 POP1        0.0000
    120 C39        -3.6370  -13.9340   -8.7840 C.3       1 POP1        0.0000
    121 H9X        -2.9850  -13.3880   -9.5020 H         1 POP1        0.0000
    122 H9Y        -4.6550  -13.4880   -8.8430 H         1 POP1        0.0000
    123 C310       -3.7070  -15.4110   -9.1930 C.3       1 POP1        0.0000
    124 H10X       -4.3670  -15.9560   -8.4810 H         1 POP1        0.0000
    125 H10Y       -2.6900  -15.8570   -9.1200 H         1 POP1        0.0000
    126 C311       -4.2360  -15.6070  -10.6190 C.3       1 POP1        0.0000
    127 H11X       -3.5790  -15.0580  -11.3300 H         1 POP1        0.0000
    128 H11Y       -5.2570  -15.1700  -10.6940 H         1 POP1        0.0000
    129 C312       -4.2900  -17.0850  -11.0270 C.3       1 POP1        0.0000
    130 H12X       -4.9500  -17.6350  -10.3190 H         1 POP1        0.0000
    131 H12Y       -3.2690  -17.5220  -10.9450 H         1 POP1        0.0000
    132 C313       -4.8070  -17.2850  -12.4570 C.3       1 POP1        0.0000
    133 H13X       -4.1480  -16.7330  -13.1630 H         1 POP1        0.0000
    134 H13Y       -5.8290  -16.8520  -12.5390 H         1 POP1        0.0000
    135 C314       -4.8530  -18.7640  -12.8640 C.3       1 POP1        0.0000
    136 H14X       -5.5130  -19.3160  -12.1580 H         1 POP1        0.0000
    137 H14Y       -3.8310  -19.1970  -12.7810 H         1 POP1        0.0000
    138 C315       -5.3670  -18.9670  -14.2950 C.3       1 POP1        0.0000
    139 H15X       -4.7080  -18.4060  -14.9960 H         1 POP1        0.0000
    140 H15Y       -6.3880  -18.5270  -14.3740 H         1 POP1        0.0000
    141 C316       -5.4170  -20.4370  -14.7160 C.3       1 POP1        0.0000
    142 H16X       -6.0900  -21.0110  -14.0430 H         1 POP1        0.0000
    143 H16Y       -4.4030  -20.8890  -14.6670 H         1 POP1        0.0000
    144 H16Z       -5.7960  -20.5330  -15.7560 H         1 POP1        0.0000
@<TRIPOS>BOND
     1  144  141 1 
     2  139  138 1 
     3  141  143 1 
     4  141  138 1 
     5  141  142 1 
     6  140  138 1 
     7  138  135 1 
     8  133  132 1 
     9  135  137 1 
    10  135  132 1 
    11  135  136 1 
    12  134  132 1 
    13  132  129 1 
    14  127  126 1 
    15  129  131 1 
    16  129  126 1 
    17  129  130 1 
    18  128  126 1 
    19  126  123 1 
    20  121  120 1 
    21  123  125 1 
    22  123  120 1 
    23  123  124 1 
    24  122  120 1 
    25  120  117 1 
    26  115  114 1 
    27  117  119 1 
    28  117  114 1 
    29  117  118 1 
    30  116  114 1 
    31  114  111 1 
    32  109  108 1 
    33  111  113 1 
    34  111  108 1 
    35  111  112 1 
    36  110  108 1 
    37  108  105 1 
    38  103  102 1 
    39  105  107 1 
    40  105  102 1 
    41  105  106 1 
    42  102  104 1 
    43  102   52 1 
    44   11    8 2 
    45   51   50 2 
    46   54   52 1 
    47   52   50 1 
    48   52   53 1 
    49    9    8 1 
    50    8   10 1 
    51    8    7 1 
    52   50   49 1 
    53    6    5 1 
    54   29   28 1 
    55    2    1 1 
    56   15   14 1 
    57   48   46 1 
    58   49   46 1 
    59    7    5 1 
    60    5    1 1 
    61    5   12 1 
    62   28   33 1 
    63   28    1 1 
    64   28   24 1 
    65   33   30 1 
    66   17   16 1 
    67    1    3 1 
    68   39   38 1 
    69   14   12 1 
    70   46   38 1 
    71   46   47 1 
    72   26   24 1 
    73   26   27 1 
    74   42   41 2 
    75   21   20 1 
    76   12   16 1 
    77   12   13 1 
    78   34   30 1 
    79   34   35 1 
    80   24   16 1 
    81   24   25 1 
    82   38   35 1 
    83   38   40 1 
    84   16   18 1 
    85   30   32 2 
    86   30   31 1 
    87   20   19 1 
    88   56   55 1 
    89    3    4 1 
    90   41   40 1 
    91   41   43 1 
    92   35   36 1 
    93   35   37 1 
    94   57   55 1 
    95   62   61 1 
    96   18   19 1 
    97   55   43 1 
    98   55   58 1 
    99   22   19 2 
   100   19   23 1 
   101   43   45 1 
   102   43   44 1 
   103   63   61 1 
   104   68   67 1 
   105   61   58 1 
   106   61   64 1 
   107   69   67 1 
   108   58   60 1 
   109   58   59 1 
   110   74   73 1 
   111   67   64 1 
   112   67   70 1 
   113   64   66 1 
   114   64   65 1 
   115   73   70 1 
   116   73   75 2 
   117   76   75 1 
   118   70   72 1 
   119   70   71 1 
   120   75   77 1 
   121   81   80 1 
   122   82   80 1 
   123   80   77 1 
   124   80   83 1 
   125   87   86 1 
   126   88   86 1 
   127   77   79 1 
   128   77   78 1 
   129   86   83 1 
   130   86   89 1 
   131   93   92 1 
   132   94   92 1 
   133   83   85 1 
   134   83   84 1 
   135   92   89 1 
   136   92   95 1 
   137   99   98 1 
   138  100   98 1 
   139   89   91 1 
   140   89   90 1 
   141   98   95 1 
   142   98  101 1 
   143   95   97 1 
   144   95   96 1 
