@<TRIPOS>MOLECULE
C:\Users\Praveer\PycharmProjects\pdb_to_mol2_converter\data\pdb\popi25.pdb
  144   144     0     0     0
SMALL
GASTEIGER

@<TRIPOS>ATOM
      1 C12         1.8000    0.1670    0.3270 C.3       1 POP1        0.0000
      2 H2          2.3190   -0.4350   -0.4590 H         1 POP1        0.0000
      3 O2          2.2050   -0.3570    1.5870 O.3       1 POP1        0.0000
      4 HO2         1.6280    0.0260    2.2550 H         1 POP1        0.0000
      5 C13         2.2380    1.6120    0.1710 C.3       1 POP1        0.0000
      6 H3          1.8440    1.9880   -0.8030 H         1 POP1        0.0000
      7 O3          3.6580    1.6880    0.0730 O.3       1 POP1        0.0000
      8 HO3         3.9210    2.6090    0.3500 H         1 POP1        0.0000
      9 C14         1.6660    2.5070    1.2720 C.3       1 POP1        0.0000
     10 H4          2.1310    2.2120    2.2460 H         1 POP1        0.0000
     11 O4          1.9200    3.8950    1.0010 O.3       1 POP1        0.0000
     12 P4          3.2810    4.7220    1.4570 P.3       1 POP1        0.0000
     13 OP42        3.0280    6.1670    1.0450 O.3       1 POP1        0.0000
     14 OP43        3.4540    4.5490    2.9620 O.3       1 POP1        0.0000
     15 OP44        4.4130    4.0850    0.6550 O.2       1 POP1        0.0000
     16 C15         0.1280    2.3140    1.4180 C.3       1 POP1        0.0000
     17 H5         -0.2620    3.0930    0.7050 H         1 POP1        0.0000
     18 O5         -0.3090    2.6550    2.7490 O.3       1 POP1        0.0000
     19 P5         -1.8620    3.1070    3.0480 P.3       1 POP1        0.0000
     20 OP52       -2.2170    1.6960    3.6820 O.3       1 POP1        0.0000
     21 HP52       -1.3750    1.2340    3.7840 H         1 POP1        0.0000
     22 OP53       -2.6540    3.2770    1.7580 O.2       1 POP1        0.0000
     23 OP54       -1.9770    4.1560    4.1440 O.3       1 POP1        0.0000
     24 C16        -0.5330    1.0140    0.8640 C.3       1 POP1        0.0000
     25 H6         -0.8020    0.4480    1.7870 H         1 POP1        0.0000
     26 O6         -1.7790    1.2770    0.2240 O.3       1 POP1        0.0000
     27 HO6        -2.2050    1.9910    0.7460 H         1 POP1        0.0000
     28 C11         0.3080    0.0130    0.0760 C.3       1 POP1        0.0000
     29 H1          0.1980    0.3800   -0.9800 H         1 POP1        0.0000
     30 P          -0.1590   -2.4240    1.2720 P.3       1 POP1        0.0000
     31 O13        -0.2830   -1.7690    2.5950 O.3       1 POP1        0.0000
     32 O14         0.9620   -3.3750    1.0790 O.2       1 POP1        0.0000
     33 O12        -0.1990   -1.3350    0.0250 O.3       1 POP1        0.0000
     34 O11        -1.4830   -3.2930    1.0730 O.3       1 POP1        0.0000
     35 C1         -1.7010   -4.3860    1.9850 C.3       1 POP1        0.0000
     36 HA         -2.6420   -4.2010    2.5470 H         1 POP1        0.0000
     37 HB         -0.8880   -4.5130    2.7460 H         1 POP1        0.0000
     38 C2         -1.8230   -5.7360    1.2290 C.3       1 POP1        0.0000
     39 HS         -2.6580   -5.6220    0.4980 H         1 POP1        0.0000
     40 O21        -2.0850   -6.7660    2.2090 O.3       1 POP1        0.0000
     41 C21        -2.7640   -7.8130    1.7710 C.2       1 POP1        0.0000
     42 O22        -3.2840   -7.9310    0.6760 O.2       1 POP1        0.0000
     43 C22        -2.7970   -8.8810    2.8710 C.3       1 POP1        0.0000
     44 H2R        -3.2790   -8.4290    3.7620 H         1 POP1        0.0000
     45 H2S        -1.7480   -9.1340    3.1260 H         1 POP1        0.0000
     46 C3         -0.5130   -6.0470    0.4390 C.3       1 POP1        0.0000
     47 HX          0.3220   -6.0010    1.1750 H         1 POP1        0.0000
     48 HY         -0.3270   -5.2270   -0.2940 H         1 POP1        0.0000
     49 O31        -0.5150   -7.3570   -0.1760 O.3       1 POP1        0.0000
     50 C31        -1.0810   -7.4100   -1.3780 C.2       1 POP1        0.0000
     51 O32        -1.5320   -6.4730   -2.0040 O.2       1 POP1        0.0000
     52 C32        -1.0560   -8.8650   -1.8580 C.3       1 POP1        0.0000
     53 H2X        -1.6580   -9.4560   -1.1370 H         1 POP1        0.0000
     54 H2Y        -0.0050   -9.2180   -1.8260 H         1 POP1        0.0000
     55 C23        -3.5620  -10.1600    2.4480 C.3       1 POP1        0.0000
     56 H3R        -3.0460  -10.6280    1.5790 H         1 POP1        0.0000
     57 H3S        -4.5900   -9.8850    2.1170 H         1 POP1        0.0000
     58 C24        -3.6730  -11.1920    3.5840 C.3       1 POP1        0.0000
     59 H4R        -4.1850  -10.7190    4.4510 H         1 POP1        0.0000
     60 H4S        -2.6500  -11.4820    3.9110 H         1 POP1        0.0000
     61 C25        -4.4480  -12.4600    3.1820 C.3       1 POP1        0.0000
     62 H5R        -3.9360  -12.9380    2.3170 H         1 POP1        0.0000
     63 H5S        -5.4700  -12.1720    2.8510 H         1 POP1        0.0000
     64 C26        -4.5690  -13.4930    4.3190 C.3       1 POP1        0.0000
     65 H6R        -5.0970  -13.0270    5.1800 H         1 POP1        0.0000
     66 H6S        -3.5490  -13.7790    4.6610 H         1 POP1        0.0000
     67 C27        -5.3300  -14.7610    3.8910 C.3       1 POP1        0.0000
     68 H7R        -4.8120  -15.2030    3.0100 H         1 POP1        0.0000
     69 H7S        -6.3540  -14.4630    3.5700 H         1 POP1        0.0000
     70 C28        -5.4370  -15.8220    5.0060 C.3       1 POP1        0.0000
     71 H8R        -5.9010  -15.3400    5.8950 H         1 POP1        0.0000
     72 H8S        -4.4100  -16.1280    5.3060 H         1 POP1        0.0000
     73 C29        -6.2180  -17.0320    4.5460 C.2       1 POP1        0.0000
     74 H91        -5.7850  -17.5550    3.6790 H         1 POP1        0.0000
     75 C210       -7.3710  -17.4980    5.0660 C.2       1 POP1        0.0000
     76 H101       -7.8380  -18.3850    4.6110 H         1 POP1        0.0000
     77 C211       -8.1180  -16.9260    6.2460 C.3       1 POP1        0.0000
     78 H11R       -7.4210  -16.4680    6.9830 H         1 POP1        0.0000
     79 H11S       -8.6520  -17.7400    6.7860 H         1 POP1        0.0000
     80 C212       -9.1460  -15.8610    5.8270 C.3       1 POP1        0.0000
     81 H12R       -9.8770  -16.3030    5.1130 H         1 POP1        0.0000
     82 H12S       -8.6240  -15.0270    5.3050 H         1 POP1        0.0000
     83 C213       -9.9120  -15.2900    7.0290 C.3       1 POP1        0.0000
     84 H13R       -9.1850  -14.8390    7.7410 H         1 POP1        0.0000
     85 H13S      -10.4300  -16.1220    7.5570 H         1 POP1        0.0000
     86 C214      -10.9460  -14.2300    6.6290 C.3       1 POP1        0.0000
     87 H14R      -11.6660  -14.6770    5.9070 H         1 POP1        0.0000
     88 H14S      -10.4280  -13.3890    6.1150 H         1 POP1        0.0000
     89 C215      -11.7210  -13.6840    7.8370 C.3       1 POP1        0.0000
     90 H15R      -11.0000  -13.2390    8.5600 H         1 POP1        0.0000
     91 H15S      -12.2360  -14.5270    8.3480 H         1 POP1        0.0000
     92 C216      -12.7600  -12.6240    7.4470 C.3       1 POP1        0.0000
     93 H16R      -13.4770  -13.0670    6.7200 H         1 POP1        0.0000
     94 H16S      -12.2440  -11.7770    6.9400 H         1 POP1        0.0000
     95 C217      -13.5380  -12.0880    8.6550 C.3       1 POP1        0.0000
     96 H17R      -12.8150  -11.6540    9.3830 H         1 POP1        0.0000
     97 H17S      -14.0480  -12.9410    9.1590 H         1 POP1        0.0000
     98 C218      -14.5780  -11.0280    8.2860 C.3       1 POP1        0.0000
     99 H18R      -15.3240  -11.4460    7.5770 H         1 POP1        0.0000
    100 H18S      -14.0880  -10.1540    7.8040 H         1 POP1        0.0000
    101 H18T      -15.1140  -10.6740    9.1930 H         1 POP1        0.0000
    102 C33        -1.6330   -9.0310   -3.2830 C.3       1 POP1        0.0000
    103 H3X        -1.0130   -8.4560   -4.0070 H         1 POP1        0.0000
    104 H3Y        -2.6630   -8.6080   -3.3150 H         1 POP1        0.0000
    105 C34        -1.6960  -10.5000   -3.7300 C.3       1 POP1        0.0000
    106 H4X        -2.3190  -11.0710   -3.0060 H         1 POP1        0.0000
    107 H4Y        -0.6720  -10.9350   -3.7130 H         1 POP1        0.0000
    108 C35        -2.2910  -10.6640   -5.1380 C.3       1 POP1        0.0000
    109 H5X        -1.6520  -10.1170   -5.8670 H         1 POP1        0.0000
    110 H5Y        -3.3020  -10.1990   -5.1590 H         1 POP1        0.0000
    111 C36        -2.4100  -12.1320   -5.5760 C.3       1 POP1        0.0000
    112 H6X        -3.0600  -12.6760   -4.8540 H         1 POP1        0.0000
    113 H6Y        -1.4020  -12.6040   -5.5470 H         1 POP1        0.0000
    114 C37        -2.9940  -12.2910   -6.9890 C.3       1 POP1        0.0000
    115 H7X        -2.3490  -11.7450   -7.7140 H         1 POP1        0.0000
    116 H7Y        -4.0060  -11.8300   -7.0220 H         1 POP1        0.0000
    117 C38        -3.0950  -13.7620   -7.4170 C.3       1 POP1        0.0000
    118 H8X        -3.7520  -14.3060   -6.7020 H         1 POP1        0.0000
    119 H8Y        -2.0830  -14.2230   -7.3660 H         1 POP1        0.0000
    120 C39        -3.6480  -13.9410   -8.8380 C.3       1 POP1        0.0000
    121 H9X        -2.9970  -13.3940   -9.5560 H         1 POP1        0.0000
    122 H9Y        -4.6670  -13.4970   -8.8970 H         1 POP1        0.0000
    123 C310       -3.7170  -15.4170   -9.2480 C.3       1 POP1        0.0000
    124 H10X       -4.3760  -15.9650   -8.5370 H         1 POP1        0.0000
    125 H10Y       -2.6990  -15.8630   -9.1770 H         1 POP1        0.0000
    126 C311       -4.2470  -15.6120  -10.6730 C.3       1 POP1        0.0000
    127 H11X       -3.5910  -15.0620  -11.3850 H         1 POP1        0.0000
    128 H11Y       -5.2690  -15.1760  -10.7480 H         1 POP1        0.0000
    129 C312       -4.2980  -17.0890  -11.0780 C.3       1 POP1        0.0000
    130 H12X       -4.9590  -17.6400  -10.3710 H         1 POP1        0.0000
    131 H12Y       -3.2780  -17.5260  -10.9980 H         1 POP1        0.0000
    132 C313       -4.8160  -17.2850  -12.5070 C.3       1 POP1        0.0000
    133 H13X       -4.1570  -16.7310  -13.2130 H         1 POP1        0.0000
    134 H13Y       -5.8390  -16.8520  -12.5880 H         1 POP1        0.0000
    135 C314       -4.8610  -18.7620  -12.9150 C.3       1 POP1        0.0000
    136 H14X       -5.5210  -19.3150  -12.2090 H         1 POP1        0.0000
    137 H14Y       -3.8390  -19.1950  -12.8310 H         1 POP1        0.0000
    138 C315       -5.3750  -18.9610  -14.3450 C.3       1 POP1        0.0000
    139 H15X       -4.7140  -18.3990  -15.0440 H         1 POP1        0.0000
    140 H15Y       -6.3960  -18.5210  -14.4240 H         1 POP1        0.0000
    141 C316       -5.4230  -20.4310  -14.7660 C.3       1 POP1        0.0000
    142 H16X       -6.0960  -21.0050  -14.0920 H         1 POP1        0.0000
    143 H16Y       -4.4090  -20.8810  -14.7150 H         1 POP1        0.0000
    144 H16Z       -5.8010  -20.5270  -15.8070 H         1 POP1        0.0000
@<TRIPOS>BOND
     1  144  141 1 
     2  139  138 1 
     3  141  143 1 
     4  141  138 1 
     5  141  142 1 
     6  140  138 1 
     7  138  135 1 
     8  133  132 1 
     9  135  137 1 
    10  135  132 1 
    11  135  136 1 
    12  134  132 1 
    13  132  129 1 
    14  127  126 1 
    15  129  131 1 
    16  129  126 1 
    17  129  130 1 
    18  128  126 1 
    19  126  123 1 
    20  121  120 1 
    21  123  125 1 
    22  123  120 1 
    23  123  124 1 
    24  122  120 1 
    25  120  117 1 
    26  115  114 1 
    27  117  119 1 
    28  117  114 1 
    29  117  118 1 
    30  116  114 1 
    31  114  111 1 
    32  109  108 1 
    33  111  113 1 
    34  111  108 1 
    35  111  112 1 
    36  110  108 1 
    37  108  105 1 
    38  103  102 1 
    39  105  107 1 
    40  105  102 1 
    41  105  106 1 
    42  104  102 1 
    43  102   52 1 
    44   51   50 2 
    45   52   54 1 
    46   52   50 1 
    47   52   53 1 
    48   50   49 1 
    49   29   28 1 
    50    6    5 1 
    51    2    1 1 
    52   48   46 1 
    53   49   46 1 
    54   33   28 1 
    55   33   30 1 
    56    7    5 1 
    57    7    8 1 
    58   28    1 1 
    59   28   24 1 
    60    5    1 1 
    61    5    9 1 
    62   26   27 1 
    63   26   24 1 
    64    1    3 1 
    65   46   47 1 
    66   46   38 1 
    67   39   38 1 
    68   15   12 2 
    69   42   41 2 
    70   17   16 1 
    71   24   16 1 
    72   24   25 1 
    73   11    9 1 
    74   11   12 1 
    75   13   12 1 
    76   34   30 1 
    77   34   35 1 
    78   32   30 2 
    79   38   35 1 
    80   38   40 1 
    81   30   31 1 
    82    9   16 1 
    83    9   10 1 
    84   16   18 1 
    85   12   14 1 
    86   56   55 1 
    87    3    4 1 
    88   22   19 2 
    89   41   40 1 
    90   41   43 1 
    91   35   36 1 
    92   35   37 1 
    93   57   55 1 
    94   62   61 1 
    95   55   43 1 
    96   55   58 1 
    97   18   19 1 
    98   63   61 1 
    99   43   45 1 
   100   43   44 1 
   101   68   67 1 
   102   19   20 1 
   103   19   23 1 
   104   61   58 1 
   105   61   64 1 
   106   69   67 1 
   107   58   60 1 
   108   58   59 1 
   109   74   73 1 
   110   20   21 1 
   111   67   64 1 
   112   67   70 1 
   113   64   66 1 
   114   64   65 1 
   115   73   70 1 
   116   73   75 2 
   117   76   75 1 
   118   70   72 1 
   119   70   71 1 
   120   75   77 1 
   121   81   80 1 
   122   82   80 1 
   123   80   77 1 
   124   80   83 1 
   125   87   86 1 
   126   88   86 1 
   127   77   79 1 
   128   77   78 1 
   129   86   83 1 
   130   86   89 1 
   131   93   92 1 
   132   94   92 1 
   133   83   85 1 
   134   83   84 1 
   135   92   89 1 
   136   92   95 1 
   137   99   98 1 
   138  100   98 1 
   139   89   91 1 
   140   89   90 1 
   141   98   95 1 
   142   98  101 1 
   143   95   97 1 
   144   95   96 1 
