@<TRIPOS>MOLECULE
C:\Users\Praveer\PycharmProjects\pdb_to_mol2_converter\data\pdb\popi24.pdb
  144   144     0     0     0
SMALL
GASTEIGER

@<TRIPOS>ATOM
      1 C12         1.7210    0.2680    0.4950 C.3       1 POP1        0.0000
      2 H2          2.2840   -0.4530   -0.1500 H         1 POP1        0.0000
      3 O2          2.0070   -0.0780    1.8520 O.3       1 POP1        0.0000
      4 HO2         1.2220   -0.5450    2.2100 H         1 POP1        0.0000
      5 C13         2.2400    1.6460    0.1730 C.3       1 POP1        0.0000
      6 H3          2.0580    1.7980   -0.9160 H         1 POP1        0.0000
      7 O3          3.6520    1.6800    0.4050 O.3       1 POP1        0.0000
      8 HO3         3.7140    1.3380    1.3050 H         1 POP1        0.0000
      9 C14         1.5020    2.7460    0.9540 C.3       1 POP1        0.0000
     10 H4          1.9620    2.6600    1.9750 H         1 POP1        0.0000
     11 O4          1.7480    4.1020    0.5650 O.3       1 POP1        0.0000
     12 P4          2.4050    4.6980   -0.8030 P.3       1 POP1        0.0000
     13 OP42        3.9260    4.2840   -0.5490 O.3       1 POP1        0.0000
     14 HP42        3.9150    3.3530   -0.2710 H         1 POP1        0.0000
     15 OP43        1.9150    3.9440   -2.0310 O.2       1 POP1        0.0000
     16 OP44        2.3330    6.2180   -0.8330 O.3       1 POP1        0.0000
     17 C15        -0.0140    2.4960    1.2460 C.3       1 POP1        0.0000
     18 H5         -0.5270    3.1940    0.5320 H         1 POP1        0.0000
     19 O5         -0.3580    2.9040    2.5820 O.3       1 POP1        0.0000
     20 P5         -1.8780    3.3900    3.0500 P.3       1 POP1        0.0000
     21 OP52       -2.1770    4.7060    2.3390 O.2       1 POP1        0.0000
     22 OP53       -2.8320    2.2780    2.6250 O.3       1 POP1        0.0000
     23 OP54       -1.8040    3.5480    4.5670 O.3       1 POP1        0.0000
     24 C16        -0.6010    1.0930    0.9320 C.3       1 POP1        0.0000
     25 H6         -0.6950    0.5840    1.9250 H         1 POP1        0.0000
     26 O6         -1.9300    1.2000    0.4470 O.3       1 POP1        0.0000
     27 HO6        -2.3900    1.6430    1.2100 H         1 POP1        0.0000
     28 C11         0.2590    0.1390    0.1100 C.3       1 POP1        0.0000
     29 H1          0.1860    0.5470   -0.9300 H         1 POP1        0.0000
     30 P          -0.0050   -2.4500    1.0630 P.3       1 POP1        0.0000
     31 O13         0.1590   -1.9320    2.4400 O.3       1 POP1        0.0000
     32 O14         1.0730   -3.3360    0.5640 O.2       1 POP1        0.0000
     33 O12        -0.2190   -1.2140    0.0050 O.3       1 POP1        0.0000
     34 O11        -1.3600   -3.2880    1.0010 O.3       1 POP1        0.0000
     35 C1         -1.5950   -4.3520    1.9380 C.3       1 POP1        0.0000
     36 HA         -2.5180   -4.1270    2.5160 H         1 POP1        0.0000
     37 HB         -0.7720   -4.4720    2.6830 H         1 POP1        0.0000
     38 C2         -1.7800   -5.7130    1.2100 C.3       1 POP1        0.0000
     39 HS         -2.6400   -5.5920    0.5090 H         1 POP1        0.0000
     40 O21        -2.0340   -6.7300    2.2090 O.3       1 POP1        0.0000
     41 C21        -2.7320   -7.7770    1.7890 C.2       1 POP1        0.0000
     42 O22        -3.2710   -7.8940    0.7030 O.2       1 POP1        0.0000
     43 C22        -2.7670   -8.8450    2.8910 C.3       1 POP1        0.0000
     44 H2R        -3.2490   -8.3920    3.7810 H         1 POP1        0.0000
     45 H2S        -1.7190   -9.1060    3.1460 H         1 POP1        0.0000
     46 C3         -0.5060   -6.0540    0.3750 C.3       1 POP1        0.0000
     47 HX          0.3630   -5.9890    1.0660 H         1 POP1        0.0000
     48 HY         -0.3480   -5.2560   -0.3900 H         1 POP1        0.0000
     49 O31        -0.5320   -7.3800   -0.2000 O.3       1 POP1        0.0000
     50 C31        -1.1090   -7.4550   -1.3940 C.2       1 POP1        0.0000
     51 O32        -1.5740   -6.5270   -2.0280 O.2       1 POP1        0.0000
     52 C32        -1.0700   -8.9080   -1.8630 C.3       1 POP1        0.0000
     53 H2X        -1.6730   -9.5050   -1.1490 H         1 POP1        0.0000
     54 H2Y        -0.0180   -9.2570   -1.8260 H         1 POP1        0.0000
     55 C23        -3.5380  -10.1220    2.4670 C.3       1 POP1        0.0000
     56 H3R        -3.0260  -10.5930    1.5970 H         1 POP1        0.0000
     57 H3S        -4.5650   -9.8430    2.1360 H         1 POP1        0.0000
     58 C24        -3.6570  -11.1610    3.5960 C.3       1 POP1        0.0000
     59 H4R        -4.1730  -10.6950    4.4650 H         1 POP1        0.0000
     60 H4S        -2.6370  -11.4590    3.9270 H         1 POP1        0.0000
     61 C25        -4.4340  -12.4230    3.1780 C.3       1 POP1        0.0000
     62 H5R        -3.9180  -12.8960    2.3120 H         1 POP1        0.0000
     63 H5S        -5.4530  -12.1280    2.8420 H         1 POP1        0.0000
     64 C26        -4.5640  -13.4600    4.3070 C.3       1 POP1        0.0000
     65 H6R        -5.0950  -12.9980    5.1690 H         1 POP1        0.0000
     66 H6S        -3.5480  -13.7530    4.6520 H         1 POP1        0.0000
     67 C27        -5.3270  -14.7240    3.8720 C.3       1 POP1        0.0000
     68 H7R        -4.8070  -15.1690    2.9930 H         1 POP1        0.0000
     69 H7S        -6.3500  -14.4260    3.5460 H         1 POP1        0.0000
     70 C28        -5.4370  -15.7790    4.9910 C.3       1 POP1        0.0000
     71 H8R        -5.9130  -15.2930    5.8720 H         1 POP1        0.0000
     72 H8S        -4.4110  -16.0750    5.3030 H         1 POP1        0.0000
     73 C29        -6.2060  -16.9950    4.5310 C.2       1 POP1        0.0000
     74 H91        -5.7700  -17.5120    3.6620 H         1 POP1        0.0000
     75 C210       -7.3520  -17.4720    5.0550 C.2       1 POP1        0.0000
     76 H101       -7.8130  -18.3630    4.6000 H         1 POP1        0.0000
     77 C211       -8.1000  -16.9080    6.2380 C.3       1 POP1        0.0000
     78 H11R       -7.4040  -16.4420    6.9710 H         1 POP1        0.0000
     79 H11S       -8.6230  -17.7260    6.7810 H         1 POP1        0.0000
     80 C212       -9.1400  -15.8510    5.8220 C.3       1 POP1        0.0000
     81 H12R       -9.8680  -16.2990    5.1090 H         1 POP1        0.0000
     82 H12S       -8.6260  -15.0120    5.3010 H         1 POP1        0.0000
     83 C213       -9.9090  -15.2890    7.0260 C.3       1 POP1        0.0000
     84 H13R       -9.1840  -14.8380    7.7410 H         1 POP1        0.0000
     85 H13S      -10.4250  -16.1240    7.5500 H         1 POP1        0.0000
     86 C214      -10.9460  -14.2300    6.6290 C.3       1 POP1        0.0000
     87 H14R      -11.6650  -14.6770    5.9070 H         1 POP1        0.0000
     88 H14S      -10.4290  -13.3890    6.1150 H         1 POP1        0.0000
     89 C215      -11.7200  -13.6850    7.8370 C.3       1 POP1        0.0000
     90 H15R      -11.0000  -13.2410    8.5600 H         1 POP1        0.0000
     91 H15S      -12.2350  -14.5290    8.3480 H         1 POP1        0.0000
     92 C216      -12.7580  -12.6250    7.4470 C.3       1 POP1        0.0000
     93 H16R      -13.4760  -13.0670    6.7200 H         1 POP1        0.0000
     94 H16S      -12.2430  -11.7780    6.9420 H         1 POP1        0.0000
     95 C217      -13.5370  -12.0900    8.6560 C.3       1 POP1        0.0000
     96 H17R      -12.8140  -11.6560    9.3840 H         1 POP1        0.0000
     97 H17S      -14.0470  -12.9420    9.1600 H         1 POP1        0.0000
     98 C218      -14.5770  -11.0290    8.2860 C.3       1 POP1        0.0000
     99 H18R      -15.3230  -11.4460    7.5760 H         1 POP1        0.0000
    100 H18S      -14.0870  -10.1550    7.8050 H         1 POP1        0.0000
    101 H18T      -15.1140  -10.6750    9.1930 H         1 POP1        0.0000
    102 C33        -1.6360   -9.0610   -3.2910 C.3       1 POP1        0.0000
    103 H3X        -1.0070   -8.4870   -4.0090 H         1 POP1        0.0000
    104 H3Y        -2.6640   -8.6320   -3.3300 H         1 POP1        0.0000
    105 C34        -1.7030  -10.5250   -3.7390 C.3       1 POP1        0.0000
    106 H4X        -2.3320  -11.0960   -3.0190 H         1 POP1        0.0000
    107 H4Y        -0.6820  -10.9660   -3.7230 H         1 POP1        0.0000
    108 C35        -2.2960  -10.6700   -5.1460 C.3       1 POP1        0.0000
    109 H5X        -1.6550  -10.1210   -5.8710 H         1 POP1        0.0000
    110 H5Y        -3.3060  -10.2020   -5.1650 H         1 POP1        0.0000
    111 C36        -2.4140  -12.1350   -5.5810 C.3       1 POP1        0.0000
    112 H6X        -3.0630  -12.6780   -4.8580 H         1 POP1        0.0000
    113 H6Y        -1.4050  -12.6060   -5.5500 H         1 POP1        0.0000
    114 C37        -2.9950  -12.2870   -6.9910 C.3       1 POP1        0.0000
    115 H7X        -2.3500  -11.7400   -7.7140 H         1 POP1        0.0000
    116 H7Y        -4.0080  -11.8260   -7.0240 H         1 POP1        0.0000
    117 C38        -3.0930  -13.7570   -7.4120 C.3       1 POP1        0.0000
    118 H8X        -3.7490  -14.3000   -6.6950 H         1 POP1        0.0000
    119 H8Y        -2.0800  -14.2170   -7.3580 H         1 POP1        0.0000
    120 C39        -3.6450  -13.9350   -8.8300 C.3       1 POP1        0.0000
    121 H9X        -2.9940  -13.3880   -9.5480 H         1 POP1        0.0000
    122 H9Y        -4.6630  -13.4890   -8.8890 H         1 POP1        0.0000
    123 C310       -3.7140  -15.4110   -9.2380 C.3       1 POP1        0.0000
    124 H10X       -4.3720  -15.9570   -8.5260 H         1 POP1        0.0000
    125 H10Y       -2.6960  -15.8560   -9.1650 H         1 POP1        0.0000
    126 C311       -4.2430  -15.6030  -10.6630 C.3       1 POP1        0.0000
    127 H11X       -3.5860  -15.0530  -11.3740 H         1 POP1        0.0000
    128 H11Y       -5.2640  -15.1670  -10.7370 H         1 POP1        0.0000
    129 C312       -4.2950  -17.0810  -11.0680 C.3       1 POP1        0.0000
    130 H12X       -4.9550  -17.6310  -10.3600 H         1 POP1        0.0000
    131 H12Y       -3.2740  -17.5170  -10.9870 H         1 POP1        0.0000
    132 C313       -4.8130  -17.2760  -12.4970 C.3       1 POP1        0.0000
    133 H13X       -4.1530  -16.7220  -13.2020 H         1 POP1        0.0000
    134 H13Y       -5.8350  -16.8430  -12.5770 H         1 POP1        0.0000
    135 C314       -4.8580  -18.7530  -12.9050 C.3       1 POP1        0.0000
    136 H14X       -5.5180  -19.3070  -12.1990 H         1 POP1        0.0000
    137 H14Y       -3.8350  -19.1860  -12.8210 H         1 POP1        0.0000
    138 C315       -5.3710  -18.9530  -14.3350 C.3       1 POP1        0.0000
    139 H15X       -4.7110  -18.3910  -15.0340 H         1 POP1        0.0000
    140 H15Y       -6.3920  -18.5130  -14.4140 H         1 POP1        0.0000
    141 C316       -5.4200  -20.4220  -14.7570 C.3       1 POP1        0.0000
    142 H16X       -6.0930  -20.9970  -14.0840 H         1 POP1        0.0000
    143 H16Y       -4.4060  -20.8740  -14.7080 H         1 POP1        0.0000
    144 H16Z       -5.7980  -20.5180  -15.7980 H         1 POP1        0.0000
@<TRIPOS>BOND
     1  144  141 1 
     2  139  138 1 
     3  141  143 1 
     4  141  138 1 
     5  141  142 1 
     6  140  138 1 
     7  138  135 1 
     8  133  132 1 
     9  135  137 1 
    10  135  132 1 
    11  135  136 1 
    12  134  132 1 
    13  132  129 1 
    14  127  126 1 
    15  129  131 1 
    16  129  126 1 
    17  129  130 1 
    18  128  126 1 
    19  126  123 1 
    20  121  120 1 
    21  123  125 1 
    22  123  120 1 
    23  123  124 1 
    24  122  120 1 
    25  120  117 1 
    26  115  114 1 
    27  117  119 1 
    28  117  114 1 
    29  117  118 1 
    30  116  114 1 
    31  114  111 1 
    32  109  108 1 
    33  111  113 1 
    34  111  108 1 
    35  111  112 1 
    36  110  108 1 
    37  108  105 1 
    38  103  102 1 
    39  105  107 1 
    40  105  102 1 
    41  105  106 1 
    42  104  102 1 
    43  102   52 1 
    44   15   12 2 
    45   51   50 2 
    46   52   54 1 
    47   52   50 1 
    48   52   53 1 
    49   50   49 1 
    50   29   28 1 
    51    6    5 1 
    52   16   12 1 
    53   12   13 1 
    54   12   11 1 
    55   13   14 1 
    56   48   46 1 
    57   49   46 1 
    58    2    1 1 
    59   33   28 1 
    60   33   30 1 
    61   28    1 1 
    62   28   24 1 
    63    5    7 1 
    64    5    1 1 
    65    5    9 1 
    66   46   47 1 
    67   46   38 1 
    68    7    8 1 
    69   26   24 1 
    70   26   27 1 
    71    1    3 1 
    72   39   38 1 
    73   18   17 1 
    74   32   30 2 
    75   11    9 1 
    76   42   41 2 
    77   24   17 1 
    78   24   25 1 
    79    9   17 1 
    80    9   10 1 
    81   34   30 1 
    82   34   35 1 
    83   30   31 1 
    84   38   35 1 
    85   38   40 1 
    86   17   19 1 
    87   56   55 1 
    88   41   40 1 
    89   41   43 1 
    90    3    4 1 
    91   35   36 1 
    92   35   37 1 
    93   57   55 1 
    94   62   61 1 
    95   21   20 2 
    96   55   43 1 
    97   55   58 1 
    98   19   20 1 
    99   22   20 1 
   100   63   61 1 
   101   43   45 1 
   102   43   44 1 
   103   68   67 1 
   104   20   23 1 
   105   61   58 1 
   106   61   64 1 
   107   69   67 1 
   108   58   60 1 
   109   58   59 1 
   110   74   73 1 
   111   67   64 1 
   112   67   70 1 
   113   64   66 1 
   114   64   65 1 
   115   73   70 1 
   116   73   75 2 
   117   76   75 1 
   118   70   72 1 
   119   70   71 1 
   120   75   77 1 
   121   81   80 1 
   122   82   80 1 
   123   80   77 1 
   124   80   83 1 
   125   87   86 1 
   126   88   86 1 
   127   77   79 1 
   128   77   78 1 
   129   86   83 1 
   130   86   89 1 
   131   93   92 1 
   132   94   92 1 
   133   83   85 1 
   134   83   84 1 
   135   92   89 1 
   136   92   95 1 
   137   99   98 1 
   138  100   98 1 
   139   89   91 1 
   140   89   90 1 
   141   98   95 1 
   142   98  101 1 
   143   95   97 1 
   144   95   96 1 
