@<TRIPOS>MOLECULE
C:\Users\Praveer\PycharmProjects\pdb_to_mol2_converter\data\pdb\popi.pdb
  137   137     0     0     0
SMALL
GASTEIGER

@<TRIPOS>ATOM
      1 C12         1.6300    0.2150    0.0700 C.3       1 POP1        0.0000
      2 H2          1.9050   -0.4190   -0.8100 H         1 POP1        0.0000
      3 O2          2.3100   -0.3080    1.2100 O.3       1 POP1        0.0000
      4 HO2         1.8700   -1.1440    1.4840 H         1 POP1        0.0000
      5 C13         2.0720    1.6350   -0.2220 C.3       1 POP1        0.0000
      6 H3          1.5180    1.9980   -1.1180 H         1 POP1        0.0000
      7 O3          3.4590    1.6720   -0.5510 O.3       1 POP1        0.0000
      8 HO3         3.9110    1.2320    0.1760 H         1 POP1        0.0000
      9 C14         1.7110    2.5450    0.9450 C.3       1 POP1        0.0000
     10 H4          2.2320    2.1600    1.8530 H         1 POP1        0.0000
     11 O4          2.1400    3.8960    0.7680 O.3       1 POP1        0.0000
     12 HO4         1.7750    4.3830    1.5180 H         1 POP1        0.0000
     13 C15         0.2220    2.4930    1.2300 C.3       1 POP1        0.0000
     14 H5         -0.2810    2.9310    0.3310 H         1 POP1        0.0000
     15 O5         -0.1380    3.3100    2.3450 O.3       1 POP1        0.0000
     16 HO5        -1.0600    3.0840    2.5280 H         1 POP1        0.0000
     17 C16        -0.3190    1.0740    1.3860 C.3       1 POP1        0.0000
     18 H6          0.0820    0.6750    2.3480 H         1 POP1        0.0000
     19 O6         -1.7360    1.1160    1.4910 O.3       1 POP1        0.0000
     20 HO6        -1.9900    0.2570    1.8770 H         1 POP1        0.0000
     21 C11         0.1220    0.1730    0.2340 C.3       1 POP1        0.0000
     22 H1         -0.2900    0.6490   -0.6910 H         1 POP1        0.0000
     23 P          -0.4870   -2.1620    1.4970 P.3       1 POP1        0.0000
     24 O13        -1.4600   -1.5540    2.4310 O.3       1 POP1        0.0000
     25 O14         0.8770   -2.4190    1.9980 O.2       1 POP1        0.0000
     26 O12        -0.3580   -1.1770    0.1950 O.3       1 POP1        0.0000
     27 O11        -1.0910   -3.4950    0.8920 O.3       1 POP1        0.0000
     28 C1         -1.7630   -4.4350    1.7360 C.3       1 POP1        0.0000
     29 HA         -2.8110   -4.1090    1.9090 H         1 POP1        0.0000
     30 HB         -1.2680   -4.5360    2.7310 H         1 POP1        0.0000
     31 C2         -1.7810   -5.8420    1.0820 C.3       1 POP1        0.0000
     32 HS         -2.5460   -5.8090    0.2700 H         1 POP1        0.0000
     33 O21        -2.0960   -6.8120    2.1070 O.3       1 POP1        0.0000
     34 C21        -2.6760   -7.9280    1.6810 C.2       1 POP1        0.0000
     35 O22        -3.0820   -8.1400    0.5570 O.2       1 POP1        0.0000
     36 C22        -2.7550   -8.9310    2.8440 C.3       1 POP1        0.0000
     37 H2R        -3.2360   -8.4230    3.7040 H         1 POP1        0.0000
     38 H2S        -1.7150   -9.1950    3.1240 H         1 POP1        0.0000
     39 C3         -0.3950   -6.1620    0.4380 C.3       1 POP1        0.0000
     40 HX          0.3500   -6.1460    1.2630 H         1 POP1        0.0000
     41 HY         -0.1040   -5.3470   -0.2630 H         1 POP1        0.0000
     42 O31        -0.3540   -7.4560   -0.2020 O.3       1 POP1        0.0000
     43 C31        -0.8900   -7.4820   -1.4200 C.2       1 POP1        0.0000
     44 O32        -1.2980   -6.5160   -2.0430 O.2       1 POP1        0.0000
     45 C32        -0.9090   -8.9220   -1.9200 C.3       1 POP1        0.0000
     46 H2X        -1.4780   -9.5240   -1.1790 H         1 POP1        0.0000
     47 H2Y         0.1350   -9.2930   -1.9560 H         1 POP1        0.0000
     48 C23        -3.5420  -10.2150    2.4700 C.3       1 POP1        0.0000
     49 H3R        -3.0360  -10.7180    1.6140 H         1 POP1        0.0000
     50 H3S        -4.5660   -9.9340    2.1330 H         1 POP1        0.0000
     51 C24        -3.6720  -11.2260    3.6250 C.3       1 POP1        0.0000
     52 H4R        -4.1890  -10.7400    4.4820 H         1 POP1        0.0000
     53 H4S        -2.6570  -11.5270    3.9660 H         1 POP1        0.0000
     54 C25        -4.4560  -12.4890    3.2230 C.3       1 POP1        0.0000
     55 H5R        -3.9510  -12.9640    2.3520 H         1 POP1        0.0000
     56 H5S        -5.4790  -12.1930    2.8960 H         1 POP1        0.0000
     57 C26        -4.5770  -13.5310    4.3490 C.3       1 POP1        0.0000
     58 H6R        -5.1090  -13.0760    5.2140 H         1 POP1        0.0000
     59 H6S        -3.5580  -13.8170    4.6910 H         1 POP1        0.0000
     60 C27        -5.3330  -14.7980    3.9050 C.3       1 POP1        0.0000
     61 H7R        -4.8130  -15.2270    3.0190 H         1 POP1        0.0000
     62 H7S        -6.3580  -14.5000    3.5860 H         1 POP1        0.0000
     63 C28        -5.4370  -15.8750    5.0070 C.3       1 POP1        0.0000
     64 H8R        -5.8790  -15.4000    5.9100 H         1 POP1        0.0000
     65 H8S        -4.4080  -16.1950    5.2840 H         1 POP1        0.0000
     66 C29        -6.2380  -17.0760    4.5540 C.2       1 POP1        0.0000
     67 H91        -5.8130  -17.6110    3.6910 H         1 POP1        0.0000
     68 C210       -7.3940  -17.5270    5.0810 C.2       1 POP1        0.0000
     69 H101       -7.8700  -18.4130    4.6320 H         1 POP1        0.0000
     70 C211       -8.1360  -16.9450    6.2580 C.3       1 POP1        0.0000
     71 H11R       -7.4360  -16.4920    6.9950 H         1 POP1        0.0000
     72 H11S       -8.6820  -17.7510    6.7980 H         1 POP1        0.0000
     73 C212       -9.1530  -15.8700    5.8320 C.3       1 POP1        0.0000
     74 H12R       -9.8860  -16.3060    5.1170 H         1 POP1        0.0000
     75 H12S       -8.6210  -15.0420    5.3100 H         1 POP1        0.0000
     76 C213       -9.9170  -15.2910    7.0310 C.3       1 POP1        0.0000
     77 H13R       -9.1890  -14.8400    7.7420 H         1 POP1        0.0000
     78 H13S      -10.4380  -16.1200    7.5620 H         1 POP1        0.0000
     79 C214      -10.9490  -14.2310    6.6290 C.3       1 POP1        0.0000
     80 H14R      -11.6700  -14.6770    5.9080 H         1 POP1        0.0000
     81 H14S      -10.4310  -13.3910    6.1130 H         1 POP1        0.0000
     82 C215      -11.7220  -13.6820    7.8360 C.3       1 POP1        0.0000
     83 H15R      -11.0010  -13.2370    8.5580 H         1 POP1        0.0000
     84 H15S      -12.2370  -14.5250    8.3500 H         1 POP1        0.0000
     85 C216      -12.7610  -12.6230    7.4450 C.3       1 POP1        0.0000
     86 H16R      -13.4790  -13.0680    6.7200 H         1 POP1        0.0000
     87 H16S      -12.2460  -11.7770    6.9370 H         1 POP1        0.0000
     88 C217      -13.5380  -12.0860    8.6540 C.3       1 POP1        0.0000
     89 H17R      -12.8140  -11.6520    9.3810 H         1 POP1        0.0000
     90 H17S      -14.0470  -12.9390    9.1600 H         1 POP1        0.0000
     91 C218      -14.5790  -11.0260    8.2850 C.3       1 POP1        0.0000
     92 H18R      -15.3260  -11.4450    7.5760 H         1 POP1        0.0000
     93 H18S      -14.0900  -10.1530    7.8020 H         1 POP1        0.0000
     94 H18T      -15.1150  -10.6710    9.1910 H         1 POP1        0.0000
     95 C33        -1.5720   -9.0420   -3.3080 C.3       1 POP1        0.0000
     96 H3X        -0.9810   -8.4700   -4.0580 H         1 POP1        0.0000
     97 H3Y        -2.5940   -8.5970   -3.2730 H         1 POP1        0.0000
     98 C34        -1.6890  -10.5010   -3.7580 C.3       1 POP1        0.0000
     99 H4X        -2.3190  -11.0560   -3.0260 H         1 POP1        0.0000
    100 H4Y        -0.6780  -10.9660   -3.7560 H         1 POP1        0.0000
    101 C35        -2.3030  -10.6430   -5.1560 C.3       1 POP1        0.0000
    102 H5X        -1.6690  -10.0950   -5.8890 H         1 POP1        0.0000
    103 H5Y        -3.3120  -10.1730   -5.1650 H         1 POP1        0.0000
    104 C36        -2.4210  -12.1100   -5.5860 C.3       1 POP1        0.0000
    105 H6X        -3.0700  -12.6490   -4.8600 H         1 POP1        0.0000
    106 H6Y        -1.4120  -12.5790   -5.5520 H         1 POP1        0.0000
    107 C37        -3.0000  -12.2780   -6.9960 C.3       1 POP1        0.0000
    108 H7X        -2.3550  -11.7340   -7.7240 H         1 POP1        0.0000
    109 H7Y        -4.0140  -11.8230   -7.0360 H         1 POP1        0.0000
    110 C38        -3.0900  -13.7520   -7.4100 C.3       1 POP1        0.0000
    111 H8X        -3.7440  -14.2940   -6.6900 H         1 POP1        0.0000
    112 H8Y        -2.0760  -14.2080   -7.3530 H         1 POP1        0.0000
    113 C39        -3.6420  -13.9380   -8.8280 C.3       1 POP1        0.0000
    114 H9X        -2.9910  -13.3910   -9.5470 H         1 POP1        0.0000
    115 H9Y        -4.6610  -13.4940   -8.8870 H         1 POP1        0.0000
    116 C310       -3.7100  -15.4140   -9.2370 C.3       1 POP1        0.0000
    117 H10X       -4.3680  -15.9610   -8.5250 H         1 POP1        0.0000
    118 H10Y       -2.6920  -15.8590   -9.1670 H         1 POP1        0.0000
    119 C311       -4.2420  -15.6050  -10.6620 C.3       1 POP1        0.0000
    120 H11X       -3.5870  -15.0530  -11.3730 H         1 POP1        0.0000
    121 H11Y       -5.2630  -15.1670  -10.7330 H         1 POP1        0.0000
    122 C312       -4.2960  -17.0810  -11.0700 C.3       1 POP1        0.0000
    123 H12X       -4.9550  -17.6320  -10.3620 H         1 POP1        0.0000
    124 H12Y       -3.2750  -17.5180  -10.9900 H         1 POP1        0.0000
    125 C313       -4.8150  -17.2760  -12.4990 C.3       1 POP1        0.0000
    126 H13X       -4.1560  -16.7220  -13.2050 H         1 POP1        0.0000
    127 H13Y       -5.8370  -16.8420  -12.5780 H         1 POP1        0.0000
    128 C314       -4.8610  -18.7530  -12.9070 C.3       1 POP1        0.0000
    129 H14X       -5.5210  -19.3060  -12.2020 H         1 POP1        0.0000
    130 H14Y       -3.8390  -19.1860  -12.8220 H         1 POP1        0.0000
    131 C315       -5.3730  -18.9530  -14.3370 C.3       1 POP1        0.0000
    132 H15X       -4.7130  -18.3910  -15.0360 H         1 POP1        0.0000
    133 H15Y       -6.3940  -18.5130  -14.4170 H         1 POP1        0.0000
    134 C316       -5.4220  -20.4230  -14.7600 C.3       1 POP1        0.0000
    135 H16X       -6.0940  -20.9980  -14.0870 H         1 POP1        0.0000
    136 H16Y       -4.4080  -20.8740  -14.7090 H         1 POP1        0.0000
    137 H16Z       -5.7990  -20.5200  -15.8000 H         1 POP1        0.0000
@<TRIPOS>BOND
     1  137  134 1 
     2  132  131 1 
     3  134  136 1 
     4  134  131 1 
     5  134  135 1 
     6  133  131 1 
     7  131  128 1 
     8  126  125 1 
     9  128  130 1 
    10  128  125 1 
    11  128  129 1 
    12  127  125 1 
    13  125  122 1 
    14  120  119 1 
    15  122  124 1 
    16  122  119 1 
    17  122  123 1 
    18  121  119 1 
    19  119  116 1 
    20  114  113 1 
    21  116  118 1 
    22  116  113 1 
    23  116  117 1 
    24  115  113 1 
    25  113  110 1 
    26  108  107 1 
    27  110  112 1 
    28  110  107 1 
    29  110  111 1 
    30  109  107 1 
    31  107  104 1 
    32  102  101 1 
    33  104  106 1 
    34  104  101 1 
    35  104  105 1 
    36  103  101 1 
    37  101   98 1 
    38   96   95 1 
    39   98  100 1 
    40   98   95 1 
    41   98   99 1 
    42   95   97 1 
    43   95   45 1 
    44   44   43 2 
    45   47   45 1 
    46   45   43 1 
    47   45   46 1 
    48   43   42 1 
    49    6    5 1 
    50    2    1 1 
    51   22   21 1 
    52    7    5 1 
    53    7    8 1 
    54   41   39 1 
    55    5    1 1 
    56    5    9 1 
    57   42   39 1 
    58    1   21 1 
    59    1    3 1 
    60   26   21 1 
    61   26   23 1 
    62   21   17 1 
    63   32   31 1 
    64   14   13 1 
    65   39   31 1 
    66   39   40 1 
    67   35   34 2 
    68   11    9 1 
    69   11   12 1 
    70   27   23 1 
    71   27   28 1 
    72    9   13 1 
    73    9   10 1 
    74   31   28 1 
    75   31   33 1 
    76    3    4 1 
    77   13   17 1 
    78   13   15 1 
    79   17   19 1 
    80   17   18 1 
    81   19   20 1 
    82   23   25 2 
    83   23   24 1 
    84   49   48 1 
    85   34   33 1 
    86   34   36 1 
    87   28   29 1 
    88   28   30 1 
    89   50   48 1 
    90   15   16 1 
    91   55   54 1 
    92   48   36 1 
    93   48   51 1 
    94   36   38 1 
    95   36   37 1 
    96   56   54 1 
    97   61   60 1 
    98   54   51 1 
    99   54   57 1 
   100   62   60 1 
   101   51   53 1 
   102   51   52 1 
   103   67   66 1 
   104   60   57 1 
   105   60   63 1 
   106   57   59 1 
   107   57   58 1 
   108   66   63 1 
   109   66   68 2 
   110   69   68 1 
   111   63   65 1 
   112   63   64 1 
   113   68   70 1 
   114   74   73 1 
   115   75   73 1 
   116   73   70 1 
   117   73   76 1 
   118   80   79 1 
   119   81   79 1 
   120   70   72 1 
   121   70   71 1 
   122   79   76 1 
   123   79   82 1 
   124   86   85 1 
   125   87   85 1 
   126   76   78 1 
   127   76   77 1 
   128   85   82 1 
   129   85   88 1 
   130   92   91 1 
   131   93   91 1 
   132   82   84 1 
   133   82   83 1 
   134   91   88 1 
   135   91   94 1 
   136   88   90 1 
   137   88   89 1 
