@<TRIPOS>MOLECULE
C:\Users\Praveer\PycharmProjects\pdb_to_mol2_converter\data\pdb\popi15.pdb
  140   140     0     0     0
SMALL
GASTEIGER

@<TRIPOS>ATOM
      1 C12         1.5790    0.2120    0.0530 C.3       1 POP1        0.0000
      2 H2          1.8930   -0.3140   -0.8830 H         1 POP1        0.0000
      3 O2          2.3150   -0.3840    1.1210 O.3       1 POP1        0.0000
      4 HO2         2.0350   -1.3180    1.1810 H         1 POP1        0.0000
      5 C13         1.9340    1.6780   -0.1000 C.3       1 POP1        0.0000
      6 H3          1.3990    2.0690   -0.9990 H         1 POP1        0.0000
      7 O3          3.3360    1.8280   -0.3450 O.3       1 POP1        0.0000
      8 HO3         3.7490    1.4870    0.4540 H         1 POP1        0.0000
      9 C14         1.4480    2.4870    1.0990 C.3       1 POP1        0.0000
     10 H4          1.9790    2.0990    2.0000 H         1 POP1        0.0000
     11 O4          1.7270    3.8830    1.0050 O.3       1 POP1        0.0000
     12 HO4         0.9210    4.3300    1.3690 H         1 POP1        0.0000
     13 C15        -0.0350    2.3270    1.3320 C.3       1 POP1        0.0000
     14 H5         -0.4850    2.9020    0.4650 H         1 POP1        0.0000
     15 O5         -0.3980    2.8590    2.6240 O.3       1 POP1        0.0000
     16 P5         -1.4510    4.1240    2.5940 P.3       1 POP1        0.0000
     17 OP52       -0.6490    5.1870    1.8590 O.3       1 POP1        0.0000
     18 OP53       -2.6330    3.5730    1.8020 O.2       1 POP1        0.0000
     19 OP54       -1.7770    4.4630    4.0450 O.3       1 POP1        0.0000
     20 C16        -0.6280    0.9360    1.2010 C.3       1 POP1        0.0000
     21 H6         -0.4990    0.4590    2.2050 H         1 POP1        0.0000
     22 O6         -2.0280    1.0550    0.9630 O.3       1 POP1        0.0000
     23 HO6        -2.2880    1.9370    1.3320 H         1 POP1        0.0000
     24 C11         0.0700    0.0280    0.1930 C.3       1 POP1        0.0000
     25 H1         -0.3020    0.4420   -0.7820 H         1 POP1        0.0000
     26 P          -0.1520   -2.4280    1.3650 P.3       1 POP1        0.0000
     27 O13        -0.5450   -1.9360    2.6990 O.3       1 POP1        0.0000
     28 O14         1.2250   -2.9610    1.2320 O.2       1 POP1        0.0000
     29 O12        -0.3670   -1.3310    0.1670 O.3       1 POP1        0.0000
     30 O11        -1.1800   -3.5490    0.9400 O.3       1 POP1        0.0000
     31 C1         -1.6590   -4.5030    1.8830 C.3       1 POP1        0.0000
     32 HA         -2.6690   -4.2070    2.2460 H         1 POP1        0.0000
     33 HB         -0.9910   -4.6100    2.7740 H         1 POP1        0.0000
     34 C2         -1.7340   -5.8660    1.1760 C.3       1 POP1        0.0000
     35 HS         -2.5470   -5.7920    0.4140 H         1 POP1        0.0000
     36 O21        -1.9950   -6.8690    2.1770 O.3       1 POP1        0.0000
     37 C21        -2.6480   -7.9290    1.7430 C.2       1 POP1        0.0000
     38 O22        -3.1090   -8.0920    0.6290 O.2       1 POP1        0.0000
     39 C22        -2.7450   -8.9390    2.8850 C.3       1 POP1        0.0000
     40 H2R        -3.2380   -8.4380    3.7430 H         1 POP1        0.0000
     41 H2S        -1.7120   -9.2170    3.1780 H         1 POP1        0.0000
     42 C3         -0.3870   -6.1450    0.4400 C.3       1 POP1        0.0000
     43 HX          0.4170   -6.1050    1.2090 H         1 POP1        0.0000
     44 HY         -0.1720   -5.3160   -0.2730 H         1 POP1        0.0000
     45 O31        -0.3600   -7.4360   -0.2040 O.3       1 POP1        0.0000
     46 C31        -0.9320   -7.4590   -1.4030 C.2       1 POP1        0.0000
     47 O32        -1.3600   -6.4970   -2.0160 O.2       1 POP1        0.0000
     48 C32        -0.9600   -8.9000   -1.8960 C.3       1 POP1        0.0000
     49 H2X        -1.5560   -9.4860   -1.1650 H         1 POP1        0.0000
     50 H2Y         0.0810   -9.2830   -1.9020 H         1 POP1        0.0000
     51 C23        -3.5390  -10.1980    2.4720 C.3       1 POP1        0.0000
     52 H3R        -3.0320  -10.6920    1.6110 H         1 POP1        0.0000
     53 H3S        -4.5600   -9.9030    2.1340 H         1 POP1        0.0000
     54 C24        -3.6730  -11.2100    3.6170 C.3       1 POP1        0.0000
     55 H4R        -4.1930  -10.7270    4.4750 H         1 POP1        0.0000
     56 H4S        -2.6570  -11.5100    3.9610 H         1 POP1        0.0000
     57 C25        -4.4530  -12.4650    3.2000 C.3       1 POP1        0.0000
     58 H5R        -3.9380  -12.9390    2.3340 H         1 POP1        0.0000
     59 H5S        -5.4710  -12.1660    2.8640 H         1 POP1        0.0000
     60 C26        -4.5790  -13.4960    4.3300 C.3       1 POP1        0.0000
     61 H6R        -5.1110  -13.0340    5.1910 H         1 POP1        0.0000
     62 H6S        -3.5610  -13.7860    4.6750 H         1 POP1        0.0000
     63 C27        -5.3370  -14.7560    3.8870 C.3       1 POP1        0.0000
     64 H7R        -4.8140  -15.1940    3.0060 H         1 POP1        0.0000
     65 H7S        -6.3600  -14.4560    3.5600 H         1 POP1        0.0000
     66 C28        -5.4440  -15.8120    5.0030 C.3       1 POP1        0.0000
     67 H8R        -5.9160  -15.3260    5.8860 H         1 POP1        0.0000
     68 H8S        -4.4180  -16.1120    5.3090 H         1 POP1        0.0000
     69 C29        -6.2190  -17.0240    4.5400 C.2       1 POP1        0.0000
     70 H91        -5.7840  -17.5410    3.6700 H         1 POP1        0.0000
     71 C210       -7.3680  -17.4930    5.0600 C.2       1 POP1        0.0000
     72 H101       -7.8330  -18.3820    4.6060 H         1 POP1        0.0000
     73 C211       -8.1130  -16.9220    6.2420 C.3       1 POP1        0.0000
     74 H11R       -7.4150  -16.4610    6.9760 H         1 POP1        0.0000
     75 H11S       -8.6430  -17.7370    6.7840 H         1 POP1        0.0000
     76 C212       -9.1440  -15.8580    5.8240 C.3       1 POP1        0.0000
     77 H12R       -9.8740  -16.3000    5.1090 H         1 POP1        0.0000
     78 H12S       -8.6230  -15.0220    5.3030 H         1 POP1        0.0000
     79 C213       -9.9100  -15.2900    7.0270 C.3       1 POP1        0.0000
     80 H13R       -9.1840  -14.8390    7.7400 H         1 POP1        0.0000
     81 H13S      -10.4280  -16.1230    7.5530 H         1 POP1        0.0000
     82 C214      -10.9450  -14.2300    6.6280 C.3       1 POP1        0.0000
     83 H14R      -11.6650  -14.6760    5.9060 H         1 POP1        0.0000
     84 H14S      -10.4280  -13.3880    6.1150 H         1 POP1        0.0000
     85 C215      -11.7190  -13.6850    7.8360 C.3       1 POP1        0.0000
     86 H15R      -10.9990  -13.2410    8.5600 H         1 POP1        0.0000
     87 H15S      -12.2350  -14.5290    8.3470 H         1 POP1        0.0000
     88 C216      -12.7580  -12.6250    7.4470 C.3       1 POP1        0.0000
     89 H16R      -13.4750  -13.0660    6.7190 H         1 POP1        0.0000
     90 H16S      -12.2430  -11.7770    6.9420 H         1 POP1        0.0000
     91 C217      -13.5370  -12.0900    8.6560 C.3       1 POP1        0.0000
     92 H17R      -12.8140  -11.6570    9.3850 H         1 POP1        0.0000
     93 H17S      -14.0470  -12.9430    9.1590 H         1 POP1        0.0000
     94 C218      -14.5770  -11.0290    8.2870 C.3       1 POP1        0.0000
     95 H18R      -15.3230  -11.4470    7.5770 H         1 POP1        0.0000
     96 H18S      -14.0860  -10.1550    7.8060 H         1 POP1        0.0000
     97 H18T      -15.1140  -10.6760    9.1930 H         1 POP1        0.0000
     98 C33        -1.5880   -9.0220   -3.2990 C.3       1 POP1        0.0000
     99 H3X        -0.9760   -8.4550   -4.0370 H         1 POP1        0.0000
    100 H3Y        -2.6080   -8.5720   -3.2930 H         1 POP1        0.0000
    101 C34        -1.6980  -10.4840   -3.7430 C.3       1 POP1        0.0000
    102 H4X        -2.3310  -11.0360   -3.0130 H         1 POP1        0.0000
    103 H4Y        -0.6850  -10.9460   -3.7320 H         1 POP1        0.0000
    104 C35        -2.3020  -10.6320   -5.1440 C.3       1 POP1        0.0000
    105 H5X        -1.6660  -10.0850   -5.8760 H         1 POP1        0.0000
    106 H5Y        -3.3120  -10.1640   -5.1590 H         1 POP1        0.0000
    107 C36        -2.4170  -12.1000   -5.5700 C.3       1 POP1        0.0000
    108 H6X        -3.0650  -12.6400   -4.8430 H         1 POP1        0.0000
    109 H6Y        -1.4070  -12.5680   -5.5340 H         1 POP1        0.0000
    110 C37        -2.9950  -12.2680   -6.9800 C.3       1 POP1        0.0000
    111 H7X        -2.3500  -11.7240   -7.7060 H         1 POP1        0.0000
    112 H7Y        -4.0090  -11.8110   -7.0180 H         1 POP1        0.0000
    113 C38        -3.0880  -13.7420   -7.3950 C.3       1 POP1        0.0000
    114 H8X        -3.7420  -14.2830   -6.6750 H         1 POP1        0.0000
    115 H8Y        -2.0740  -14.1980   -7.3380 H         1 POP1        0.0000
    116 C39        -3.6390  -13.9260   -8.8140 C.3       1 POP1        0.0000
    117 H9X        -2.9870  -13.3790   -9.5320 H         1 POP1        0.0000
    118 H9Y        -4.6570  -13.4800   -8.8730 H         1 POP1        0.0000
    119 C310       -3.7080  -15.4020   -9.2230 C.3       1 POP1        0.0000
    120 H10X       -4.3670  -15.9480   -8.5110 H         1 POP1        0.0000
    121 H10Y       -2.6900  -15.8480   -9.1510 H         1 POP1        0.0000
    122 C311       -4.2380  -15.5950  -10.6490 C.3       1 POP1        0.0000
    123 H11X       -3.5810  -15.0440  -11.3590 H         1 POP1        0.0000
    124 H11Y       -5.2590  -15.1570  -10.7220 H         1 POP1        0.0000
    125 C312       -4.2910  -17.0720  -11.0570 C.3       1 POP1        0.0000
    126 H12X       -4.9510  -17.6230  -10.3500 H         1 POP1        0.0000
    127 H12Y       -3.2700  -17.5090  -10.9770 H         1 POP1        0.0000
    128 C313       -4.8090  -17.2680  -12.4870 C.3       1 POP1        0.0000
    129 H13X       -4.1500  -16.7140  -13.1930 H         1 POP1        0.0000
    130 H13Y       -5.8310  -16.8340  -12.5680 H         1 POP1        0.0000
    131 C314       -4.8550  -18.7460  -12.8960 C.3       1 POP1        0.0000
    132 H14X       -5.5140  -19.2990  -12.1910 H         1 POP1        0.0000
    133 H14Y       -3.8320  -19.1790  -12.8130 H         1 POP1        0.0000
    134 C315       -5.3690  -18.9460  -14.3270 C.3       1 POP1        0.0000
    135 H15X       -4.7090  -18.3840  -15.0270 H         1 POP1        0.0000
    136 H15Y       -6.3890  -18.5060  -14.4050 H         1 POP1        0.0000
    137 C316       -5.4180  -20.4160  -14.7500 C.3       1 POP1        0.0000
    138 H16X       -6.0910  -20.9900  -14.0780 H         1 POP1        0.0000
    139 H16Y       -4.4040  -20.8680  -14.7010 H         1 POP1        0.0000
    140 H16Z       -5.7960  -20.5110  -15.7910 H         1 POP1        0.0000
@<TRIPOS>BOND
     1  140  137 1 
     2  135  134 1 
     3  137  139 1 
     4  137  134 1 
     5  137  138 1 
     6  136  134 1 
     7  134  131 1 
     8  129  128 1 
     9  131  133 1 
    10  131  128 1 
    11  131  132 1 
    12  130  128 1 
    13  128  125 1 
    14  123  122 1 
    15  125  127 1 
    16  125  122 1 
    17  125  126 1 
    18  124  122 1 
    19  122  119 1 
    20  117  116 1 
    21  119  121 1 
    22  119  116 1 
    23  119  120 1 
    24  118  116 1 
    25  116  113 1 
    26  111  110 1 
    27  113  115 1 
    28  113  110 1 
    29  113  114 1 
    30  112  110 1 
    31  110  107 1 
    32  105  104 1 
    33  107  109 1 
    34  107  104 1 
    35  107  108 1 
    36  106  104 1 
    37  104  101 1 
    38   99   98 1 
    39  101  103 1 
    40  101   98 1 
    41  101  102 1 
    42   98  100 1 
    43   98   48 1 
    44   47   46 2 
    45   50   48 1 
    46   48   46 1 
    47   48   49 1 
    48   46   45 1 
    49    6    5 1 
    50    2    1 1 
    51   25   24 1 
    52    7    5 1 
    53    7    8 1 
    54   44   42 1 
    55   45   42 1 
    56    5    1 1 
    57    5    9 1 
    58    1   24 1 
    59    1    3 1 
    60   29   24 1 
    61   29   26 1 
    62   24   20 1 
    63   35   34 1 
    64   42   34 1 
    65   42   43 1 
    66   14   13 1 
    67   38   37 2 
    68   30   26 1 
    69   30   31 1 
    70   22   20 1 
    71   22   23 1 
    72   11    9 1 
    73   11   12 1 
    74    9   13 1 
    75    9   10 1 
    76    3    4 1 
    77   34   31 1 
    78   34   36 1 
    79   20   13 1 
    80   20   21 1 
    81   28   26 2 
    82   13   15 1 
    83   26   27 1 
    84   52   51 1 
    85   37   36 1 
    86   37   39 1 
    87   18   16 2 
    88   17   16 1 
    89   31   32 1 
    90   31   33 1 
    91   53   51 1 
    92   58   57 1 
    93   51   39 1 
    94   51   54 1 
    95   16   15 1 
    96   16   19 1 
    97   59   57 1 
    98   39   41 1 
    99   39   40 1 
   100   64   63 1 
   101   57   54 1 
   102   57   60 1 
   103   65   63 1 
   104   54   56 1 
   105   54   55 1 
   106   70   69 1 
   107   63   60 1 
   108   63   66 1 
   109   60   62 1 
   110   60   61 1 
   111   69   66 1 
   112   69   71 2 
   113   72   71 1 
   114   66   68 1 
   115   66   67 1 
   116   71   73 1 
   117   77   76 1 
   118   78   76 1 
   119   76   73 1 
   120   76   79 1 
   121   83   82 1 
   122   84   82 1 
   123   73   75 1 
   124   73   74 1 
   125   82   79 1 
   126   82   85 1 
   127   89   88 1 
   128   90   88 1 
   129   79   81 1 
   130   79   80 1 
   131   88   85 1 
   132   88   91 1 
   133   95   94 1 
   134   96   94 1 
   135   85   87 1 
   136   85   86 1 
   137   94   91 1 
   138   94   97 1 
   139   91   93 1 
   140   91   92 1 
