@<TRIPOS>MOLECULE
C:\Users\Praveer\PycharmProjects\pdb_to_mol2_converter\data\pdb\popi13.pdb
  140   140     0     0     0
SMALL
GASTEIGER

@<TRIPOS>ATOM
      1 C12         1.8780    0.1260    0.3270 C.3       1 POP1        0.0000
      2 H2          2.2860   -0.5250   -0.4840 H         1 POP1        0.0000
      3 O2          2.4570   -0.3040    1.5460 O.3       1 POP1        0.0000
      4 HO2         3.3910   -0.4440    1.2510 H         1 POP1        0.0000
      5 C13         2.2920    1.5640    0.0390 C.3       1 POP1        0.0000
      6 H3          1.9590    1.7660   -1.0130 H         1 POP1        0.0000
      7 O3          3.7040    1.8390    0.0880 O.3       1 POP1        0.0000
      8 P3          4.7950    0.8460   -0.6480 P.3       1 POP1        0.0000
      9 OP32        6.1130    1.6080   -0.6450 O.3       1 POP1        0.0000
     10 OP33        4.2270    0.6190   -2.0460 O.2       1 POP1        0.0000
     11 OP34        4.8110   -0.4020    0.2280 O.3       1 POP1        0.0000
     12 C14         1.5940    2.5660    0.9410 C.3       1 POP1        0.0000
     13 H4          2.1030    2.4900    1.9370 H         1 POP1        0.0000
     14 O4          1.8390    3.8710    0.4310 O.3       1 POP1        0.0000
     15 HO4         2.7510    3.7690    0.1200 H         1 POP1        0.0000
     16 C15         0.1120    2.3050    1.2080 C.3       1 POP1        0.0000
     17 H5         -0.4030    2.6700    0.2820 H         1 POP1        0.0000
     18 O5         -0.4280    3.0590    2.2960 O.3       1 POP1        0.0000
     19 HO5        -1.2910    2.6530    2.4390 H         1 POP1        0.0000
     20 C16        -0.2920    0.8460    1.3450 C.3       1 POP1        0.0000
     21 H6          0.0330    0.5220    2.3660 H         1 POP1        0.0000
     22 O6         -1.7090    0.7220    1.2460 O.3       1 POP1        0.0000
     23 HO6        -1.8380   -0.2330    1.3090 H         1 POP1        0.0000
     24 C11         0.3670   -0.0490    0.3170 C.3       1 POP1        0.0000
     25 H1          0.0470    0.3400   -0.6830 H         1 POP1        0.0000
     26 P          -0.1860   -2.4420    1.6030 P.3       1 POP1        0.0000
     27 O13        -0.6530   -1.7300    2.8150 O.3       1 POP1        0.0000
     28 O14         0.9270   -3.4080    1.7180 O.2       1 POP1        0.0000
     29 O12        -0.0280   -1.4270    0.3160 O.3       1 POP1        0.0000
     30 O11        -1.4480   -3.2880    1.1300 O.3       1 POP1        0.0000
     31 C1         -1.9530   -4.3200    1.9890 C.3       1 POP1        0.0000
     32 HA         -2.9990   -4.0720    2.2740 H         1 POP1        0.0000
     33 HB         -1.3750   -4.4300    2.9430 H         1 POP1        0.0000
     34 C2         -1.9410   -5.6950    1.2740 C.3       1 POP1        0.0000
     35 HS         -2.7350   -5.6610    0.4910 H         1 POP1        0.0000
     36 O21        -2.1940   -6.7000    2.2780 O.3       1 POP1        0.0000
     37 C21        -2.7740   -7.8060    1.8530 C.2       1 POP1        0.0000
     38 O22        -3.2240   -8.0080    0.7390 O.2       1 POP1        0.0000
     39 C22        -2.8020   -8.8140    3.0070 C.3       1 POP1        0.0000
     40 H2R        -3.2830   -8.3180    3.8740 H         1 POP1        0.0000
     41 H2S        -1.7490   -9.0480    3.2700 H         1 POP1        0.0000
     42 C3         -0.5730   -5.9560    0.5670 C.3       1 POP1        0.0000
     43 HX          0.2180   -5.8680    1.3480 H         1 POP1        0.0000
     44 HY         -0.3760   -5.1390   -0.1670 H         1 POP1        0.0000
     45 O31        -0.4920   -7.2690   -0.0360 O.3       1 POP1        0.0000
     46 C31        -1.0300   -7.3640   -1.2490 C.2       1 POP1        0.0000
     47 O32        -1.4960   -6.4510   -1.9030 O.2       1 POP1        0.0000
     48 C32        -0.9740   -8.8290   -1.6900 C.3       1 POP1        0.0000
     49 H2X        -1.5310   -9.4180   -0.9320 H         1 POP1        0.0000
     50 H2Y         0.0870   -9.1500   -1.6850 H         1 POP1        0.0000
     51 C23        -3.5610  -10.1160    2.6520 C.3       1 POP1        0.0000
     52 H3R        -3.0470  -10.6260    1.8060 H         1 POP1        0.0000
     53 H3S        -4.5920   -9.8630    2.3130 H         1 POP1        0.0000
     54 C24        -3.6650  -11.0930    3.8360 C.3       1 POP1        0.0000
     55 H4R        -4.1760  -10.5860    4.6840 H         1 POP1        0.0000
     56 H4S        -2.6410  -11.3700    4.1730 H         1 POP1        0.0000
     57 C25        -4.4400  -12.3740    3.4800 C.3       1 POP1        0.0000
     58 H5R        -3.9310  -12.8760    2.6270 H         1 POP1        0.0000
     59 H5S        -5.4630  -12.0940    3.1440 H         1 POP1        0.0000
     60 C26        -4.5580  -13.3740    4.6440 C.3       1 POP1        0.0000
     61 H6R        -5.0860  -12.8880    5.4940 H         1 POP1        0.0000
     62 H6S        -3.5390  -13.6530    4.9910 H         1 POP1        0.0000
     63 C27        -5.3220  -14.6500    4.2420 C.3       1 POP1        0.0000
     64 H7R        -4.8030  -15.1110    3.3710 H         1 POP1        0.0000
     65 H7S        -6.3450  -14.3570    3.9130 H         1 POP1        0.0000
     66 C28        -5.4320  -15.6860    5.3800 C.3       1 POP1        0.0000
     67 H8R        -5.8980  -15.1850    6.2570 H         1 POP1        0.0000
     68 H8S        -4.4060  -15.9860    5.6870 H         1 POP1        0.0000
     69 C29        -6.2130  -16.9060    4.9440 C.2       1 POP1        0.0000
     70 H91        -5.7780  -17.4450    4.0870 H         1 POP1        0.0000
     71 C210       -7.3640  -17.3640    5.4720 C.2       1 POP1        0.0000
     72 H101       -7.8290  -18.2610    5.0320 H         1 POP1        0.0000
     73 C211       -8.1160  -16.7740    6.6400 C.3       1 POP1        0.0000
     74 H11R       -7.4210  -16.2990    7.3690 H         1 POP1        0.0000
     75 H11S       -8.6480  -17.5790    7.1940 H         1 POP1        0.0000
     76 C212       -9.1460  -15.7190    6.1970 C.3       1 POP1        0.0000
     77 H12R       -9.8770  -16.1790    5.4940 H         1 POP1        0.0000
     78 H12S       -8.6250  -14.8970    5.6560 H         1 POP1        0.0000
     79 C213       -9.9120  -15.1210    7.3860 C.3       1 POP1        0.0000
     80 H13R       -9.1850  -14.6530    8.0870 H         1 POP1        0.0000
     81 H13S      -10.4300  -15.9400    7.9330 H         1 POP1        0.0000
     82 C214      -10.9460  -14.0700    6.9610 C.3       1 POP1        0.0000
     83 H14R      -11.6660  -14.5340    6.2490 H         1 POP1        0.0000
     84 H14S      -10.4290  -13.2420    6.4280 H         1 POP1        0.0000
     85 C215      -11.7210  -13.4970    8.1550 C.3       1 POP1        0.0000
     86 H15R      -11.0010  -13.0350    8.8680 H         1 POP1        0.0000
     87 H15S      -12.2360  -14.3280    8.6860 H         1 POP1        0.0000
     88 C216      -12.7600  -12.4460    7.7400 C.3       1 POP1        0.0000
     89 H16R      -13.4770  -12.9060    7.0240 H         1 POP1        0.0000
     90 H16S      -12.2440  -11.6110    7.2150 H         1 POP1        0.0000
     91 C217      -13.5380  -11.8820    8.9360 C.3       1 POP1        0.0000
     92 H17R      -12.8140  -11.4320    9.6540 H         1 POP1        0.0000
     93 H17S      -14.0470  -12.7230    9.4600 H         1 POP1        0.0000
     94 C218      -14.5780  -10.8300    8.5420 C.3       1 POP1        0.0000
     95 H18R      -15.3240  -11.2650    7.8430 H         1 POP1        0.0000
     96 H18S      -14.0870   -9.9690    8.0400 H         1 POP1        0.0000
     97 H18T      -15.1140  -10.4550    9.4400 H         1 POP1        0.0000
     98 C33        -1.6000   -9.0550   -3.0860 C.3       1 POP1        0.0000
     99 H3X        -1.0110   -8.5030   -3.8530 H         1 POP1        0.0000
    100 H3Y        -2.6340   -8.6390   -3.0950 H         1 POP1        0.0000
    101 C34        -1.6730  -10.5400   -3.4750 C.3       1 POP1        0.0000
    102 H4X        -2.2900  -11.0810   -2.7220 H         1 POP1        0.0000
    103 H4Y        -0.6490  -10.9760   -3.4520 H         1 POP1        0.0000
    104 C35        -2.2810  -10.7540   -4.8700 C.3       1 POP1        0.0000
    105 H5X        -1.6500  -10.2290   -5.6220 H         1 POP1        0.0000
    106 H5Y        -3.2940  -10.2930   -4.8980 H         1 POP1        0.0000
    107 C36        -2.3990  -12.2350   -5.2630 C.3       1 POP1        0.0000
    108 H6X        -3.0460  -12.7580   -4.5240 H         1 POP1        0.0000
    109 H6Y        -1.3900  -12.7040   -5.2200 H         1 POP1        0.0000
    110 C37        -2.9830  -12.4350   -6.6710 C.3       1 POP1        0.0000
    111 H7X        -2.3390  -11.9060   -7.4090 H         1 POP1        0.0000
    112 H7Y        -3.9950  -11.9760   -6.7150 H         1 POP1        0.0000
    113 C38        -3.0840  -13.9160   -7.0660 C.3       1 POP1        0.0000
    114 H8X        -3.7410  -14.4430   -6.3380 H         1 POP1        0.0000
    115 H8Y        -2.0720  -14.3760   -7.0040 H         1 POP1        0.0000
    116 C39        -3.6380  -14.1290   -8.4830 C.3       1 POP1        0.0000
    117 H9X        -2.9870  -13.5980   -9.2130 H         1 POP1        0.0000
    118 H9Y        -4.6560  -13.6840   -8.5510 H         1 POP1        0.0000
    119 C310       -3.7100  -15.6150   -8.8660 C.3       1 POP1        0.0000
    120 H10X       -4.3700  -16.1460   -8.1430 H         1 POP1        0.0000
    121 H10Y       -2.6930  -16.0600   -8.7850 H         1 POP1        0.0000
    122 C311       -4.2410  -15.8430  -10.2880 C.3       1 POP1        0.0000
    123 H11X       -3.5850  -15.3100  -11.0120 H         1 POP1        0.0000
    124 H11Y       -5.2620  -15.4090  -10.3720 H         1 POP1        0.0000
    125 C312       -4.2950  -17.3300  -10.6630 C.3       1 POP1        0.0000
    126 H12X       -4.9550  -17.8650   -9.9440 H         1 POP1        0.0000
    127 H12Y       -3.2740  -17.7650  -10.5730 H         1 POP1        0.0000
    128 C313       -4.8130  -17.5630  -12.0880 C.3       1 POP1        0.0000
    129 H13X       -4.1540  -17.0270  -12.8080 H         1 POP1        0.0000
    130 H13Y       -5.8350  -17.1330  -12.1800 H         1 POP1        0.0000
    131 C314       -4.8580  -19.0500  -12.4630 C.3       1 POP1        0.0000
    132 H14X       -5.5180  -19.5880  -11.7450 H         1 POP1        0.0000
    133 H14Y       -3.8360  -19.4810  -12.3690 H         1 POP1        0.0000
    134 C315       -5.3720  -19.2850  -13.8880 C.3       1 POP1        0.0000
    135 H15X       -4.7120  -18.7400  -14.6020 H         1 POP1        0.0000
    136 H15Y       -6.3930  -18.8480  -13.9780 H         1 POP1        0.0000
    137 C316       -5.4210  -20.7650  -14.2770 C.3       1 POP1        0.0000
    138 H16X       -6.0940  -21.3240  -13.5910 H         1 POP1        0.0000
    139 H16Y       -4.4070  -21.2160  -14.2170 H         1 POP1        0.0000
    140 H16Z       -5.7990  -20.8840  -15.3150 H         1 POP1        0.0000
@<TRIPOS>BOND
     1  140  137 1 
     2  135  134 1 
     3  137  139 1 
     4  137  134 1 
     5  137  138 1 
     6  136  134 1 
     7  134  131 1 
     8  129  128 1 
     9  131  133 1 
    10  131  128 1 
    11  131  132 1 
    12  130  128 1 
    13  128  125 1 
    14  123  122 1 
    15  125  127 1 
    16  125  122 1 
    17  125  126 1 
    18  124  122 1 
    19  122  119 1 
    20  117  116 1 
    21  119  121 1 
    22  119  116 1 
    23  119  120 1 
    24  118  116 1 
    25  116  113 1 
    26  111  110 1 
    27  113  115 1 
    28  113  110 1 
    29  113  114 1 
    30  112  110 1 
    31  110  107 1 
    32  105  104 1 
    33  107  109 1 
    34  107  104 1 
    35  107  108 1 
    36  106  104 1 
    37  104  101 1 
    38   99   98 1 
    39  101  103 1 
    40  101   98 1 
    41  101  102 1 
    42  100   98 1 
    43   98   48 1 
    44   10    8 2 
    45   47   46 2 
    46   48   50 1 
    47   48   46 1 
    48   48   49 1 
    49   46   45 1 
    50    6    5 1 
    51   25   24 1 
    52    8    9 1 
    53    8    7 1 
    54    8   11 1 
    55    2    1 1 
    56   44   42 1 
    57   45   42 1 
    58    5    7 1 
    59    5    1 1 
    60    5   12 1 
    61   15   14 1 
    62   17   16 1 
    63   29   24 1 
    64   29   26 1 
    65   24    1 1 
    66   24   20 1 
    67    1    3 1 
    68   14   12 1 
    69   35   34 1 
    70   42   34 1 
    71   42   43 1 
    72   38   37 2 
    73   12   16 1 
    74   12   13 1 
    75   30   26 1 
    76   30   31 1 
    77   16   20 1 
    78   16   18 1 
    79   22   23 1 
    80   22   20 1 
    81    4    3 1 
    82   34   31 1 
    83   34   36 1 
    84   20   21 1 
    85   26   28 2 
    86   26   27 1 
    87   52   51 1 
    88   37   36 1 
    89   37   39 1 
    90   31   32 1 
    91   31   33 1 
    92   18   19 1 
    93   53   51 1 
    94   58   57 1 
    95   51   39 1 
    96   51   54 1 
    97   39   41 1 
    98   39   40 1 
    99   59   57 1 
   100   64   63 1 
   101   57   54 1 
   102   57   60 1 
   103   54   56 1 
   104   54   55 1 
   105   65   63 1 
   106   70   69 1 
   107   63   60 1 
   108   63   66 1 
   109   60   62 1 
   110   60   61 1 
   111   69   66 1 
   112   69   71 2 
   113   72   71 1 
   114   66   68 1 
   115   66   67 1 
   116   71   73 1 
   117   77   76 1 
   118   78   76 1 
   119   76   73 1 
   120   76   79 1 
   121   83   82 1 
   122   84   82 1 
   123   73   75 1 
   124   73   74 1 
   125   82   79 1 
   126   82   85 1 
   127   89   88 1 
   128   90   88 1 
   129   79   81 1 
   130   79   80 1 
   131   88   85 1 
   132   88   91 1 
   133   95   94 1 
   134   96   94 1 
   135   85   87 1 
   136   85   86 1 
   137   94   91 1 
   138   94   97 1 
   139   91   93 1 
   140   91   92 1 
