@<TRIPOS>MOLECULE
C:\Users\Praveer\PycharmProjects\pdb_to_mol2_converter\data\pdb\popi35.pdb
  147   147     0     0     0
SMALL
GASTEIGER

@<TRIPOS>ATOM
      1 C12         1.9630    0.2060    0.4000 C.3       1 POP1        0.0000
      2 H2          2.4290   -0.5130   -0.3170 H         1 POP1        0.0000
      3 O2          2.3650   -0.1890    1.7060 O.3       1 POP1        0.0000
      4 HO2         3.3330   -0.3320    1.5770 H         1 POP1        0.0000
      5 C13         2.5120    1.6040    0.0580 C.3       1 POP1        0.0000
      6 H3          2.3240    1.6750   -1.0460 H         1 POP1        0.0000
      7 O3          3.9480    1.7280    0.2100 O.3       1 POP1        0.0000
      8 P3          5.0520    0.5510   -0.2130 P.3       1 POP1        0.0000
      9 OP32        6.4450    1.1780   -0.1560 O.3       1 POP1        0.0000
     10 OP33        4.6980    0.0740   -1.6210 O.2       1 POP1        0.0000
     11 OP34        4.8850   -0.5440    0.8410 O.3       1 POP1        0.0000
     12 C14         1.7080    2.8050    0.6680 C.3       1 POP1        0.0000
     13 H4          2.2650    3.0270    1.6160 H         1 POP1        0.0000
     14 O4          1.8950    3.9740   -0.1560 O.3       1 POP1        0.0000
     15 P4          1.0670    5.4010   -0.3470 P.3       1 POP1        0.0000
     16 OP42        2.0960    6.4520   -0.7710 O.3       1 POP1        0.0000
     17 OP43        0.4060    5.7800    0.9790 O.3       1 POP1        0.0000
     18 OP44        0.0350    5.1630   -1.4530 O.2       1 POP1        0.0000
     19 C15         0.2430    2.4980    1.1380 C.3       1 POP1        0.0000
     20 H5         -0.3730    3.0910    0.4070 H         1 POP1        0.0000
     21 O5          0.0250    3.0080    2.4730 O.3       1 POP1        0.0000
     22 P5         -1.4470    3.4920    3.0010 P.3       1 POP1        0.0000
     23 OP52       -1.7620    4.7410    2.0850 O.3       1 POP1        0.0000
     24 HP52       -0.9160    5.0810    1.6960 H         1 POP1        0.0000
     25 OP53       -2.4810    2.4050    2.7220 O.2       1 POP1        0.0000
     26 OP54       -1.3710    3.9600    4.4540 O.3       1 POP1        0.0000
     27 C16        -0.3370    1.0560    0.9920 C.3       1 POP1        0.0000
     28 H6         -0.3550    0.6490    2.0350 H         1 POP1        0.0000
     29 O6         -1.7070    1.0960    0.5950 O.3       1 POP1        0.0000
     30 HO6        -2.1180    1.5780    1.3460 H         1 POP1        0.0000
     31 C11         0.4620    0.0340    0.1980 C.3       1 POP1        0.0000
     32 H1          0.3240    0.3660   -0.8640 H         1 POP1        0.0000
     33 P          -0.2500   -2.3420    1.5210 P.3       1 POP1        0.0000
     34 O13        -0.7950   -1.6720    2.7230 O.3       1 POP1        0.0000
     35 O14         0.8510   -3.3190    1.7240 O.2       1 POP1        0.0000
     36 O12         0.0190   -1.3480    0.2210 O.3       1 POP1        0.0000
     37 O11        -1.4550   -3.2670    1.0050 O.3       1 POP1        0.0000
     38 C1         -1.9930   -4.2750    1.8820 C.3       1 POP1        0.0000
     39 HA         -3.0440   -4.0150    2.1350 H         1 POP1        0.0000
     40 HB         -1.4370   -4.3570    2.8490 H         1 POP1        0.0000
     41 C2         -1.9770   -5.6820    1.2190 C.3       1 POP1        0.0000
     42 HS         -2.7620   -5.6710    0.4260 H         1 POP1        0.0000
     43 O21        -2.2480   -6.6700    2.2430 O.3       1 POP1        0.0000
     44 C21        -2.8100   -7.7980    1.8340 C.2       1 POP1        0.0000
     45 O22        -3.2490   -8.0250    0.7230 O.2       1 POP1        0.0000
     46 C22        -2.8260   -8.8020    3.0010 C.3       1 POP1        0.0000
     47 H2R        -3.3050   -8.3000    3.8650 H         1 POP1        0.0000
     48 H2S        -1.7690   -9.0220    3.2580 H         1 POP1        0.0000
     49 C3         -0.6030   -5.9660    0.5310 C.3       1 POP1        0.0000
     50 HX          0.1790   -5.8590    1.3160 H         1 POP1        0.0000
     51 HY         -0.3930   -5.1690   -0.2190 H         1 POP1        0.0000
     52 O31        -0.5150   -7.2930   -0.0430 O.3       1 POP1        0.0000
     53 C31        -1.0610   -7.4120   -1.2490 C.2       1 POP1        0.0000
     54 O32        -1.5560   -6.5160   -1.9080 O.2       1 POP1        0.0000
     55 C32        -0.9830   -8.8770   -1.6830 C.3       1 POP1        0.0000
     56 H2X        -1.5370   -9.4670   -0.9240 H         1 POP1        0.0000
     57 H2Y         0.0810   -9.1870   -1.6730 H         1 POP1        0.0000
     58 C23        -3.5730  -10.1240    2.6690 C.3       1 POP1        0.0000
     59 H3R        -3.0580  -10.6350    1.8240 H         1 POP1        0.0000
     60 H3S        -4.6070   -9.8840    2.3320 H         1 POP1        0.0000
     61 C24        -3.6720  -11.1110    3.8510 C.3       1 POP1        0.0000
     62 H4R        -4.1850  -10.6150    4.7040 H         1 POP1        0.0000
     63 H4S        -2.6500  -11.3930    4.1870 H         1 POP1        0.0000
     64 C25        -4.4460  -12.3940    3.4910 C.3       1 POP1        0.0000
     65 H5R        -3.9390  -12.8950    2.6360 H         1 POP1        0.0000
     66 H5S        -5.4710  -12.1170    3.1570 H         1 POP1        0.0000
     67 C26        -4.5610  -13.3990    4.6520 C.3       1 POP1        0.0000
     68 H6R        -5.0890  -12.9160    5.5050 H         1 POP1        0.0000
     69 H6S        -3.5410  -13.6770    4.9980 H         1 POP1        0.0000
     70 C27        -5.3220  -14.6760    4.2510 C.3       1 POP1        0.0000
     71 H7R        -4.8060  -15.1330    3.3770 H         1 POP1        0.0000
     72 H7S        -6.3470  -14.3850    3.9260 H         1 POP1        0.0000
     73 C28        -5.4260  -15.7150    5.3870 C.3       1 POP1        0.0000
     74 H8R        -5.8780  -15.2150    6.2720 H         1 POP1        0.0000
     75 H8S        -4.3970  -16.0230    5.6800 H         1 POP1        0.0000
     76 C29        -6.2190  -16.9280    4.9540 C.2       1 POP1        0.0000
     77 H91        -5.7910  -17.4700    4.0970 H         1 POP1        0.0000
     78 C210       -7.3750  -17.3770    5.4820 C.2       1 POP1        0.0000
     79 H101       -7.8440  -18.2710    5.0420 H         1 POP1        0.0000
     80 C211       -8.1270  -16.7850    6.6480 C.3       1 POP1        0.0000
     81 H11R       -7.4330  -16.3140    7.3800 H         1 POP1        0.0000
     82 H11S       -8.6650  -17.5880    7.1990 H         1 POP1        0.0000
     83 C212       -9.1510  -15.7260    6.2020 C.3       1 POP1        0.0000
     84 H12R       -9.8830  -16.1810    5.4980 H         1 POP1        0.0000
     85 H12S       -8.6240  -14.9060    5.6610 H         1 POP1        0.0000
     86 C213       -9.9160  -15.1220    7.3880 C.3       1 POP1        0.0000
     87 H13R       -9.1890  -14.6540    8.0890 H         1 POP1        0.0000
     88 H13S      -10.4370  -15.9390    7.9370 H         1 POP1        0.0000
     89 C214      -10.9490  -14.0710    6.9610 C.3       1 POP1        0.0000
     90 H14R      -11.6690  -14.5340    6.2500 H         1 POP1        0.0000
     91 H14S      -10.4300  -13.2440    6.4260 H         1 POP1        0.0000
     92 C215      -11.7220  -13.4950    8.1550 C.3       1 POP1        0.0000
     93 H15R      -11.0010  -13.0330    8.8660 H         1 POP1        0.0000
     94 H15S      -12.2370  -14.3260    8.6870 H         1 POP1        0.0000
     95 C216      -12.7610  -12.4450    7.7400 C.3       1 POP1        0.0000
     96 H16R      -13.4790  -12.9050    7.0240 H         1 POP1        0.0000
     97 H16S      -12.2460  -11.6110    7.2130 H         1 POP1        0.0000
     98 C217      -13.5380  -11.8810    8.9360 C.3       1 POP1        0.0000
     99 H17R      -12.8140  -11.4300    9.6520 H         1 POP1        0.0000
    100 H17S      -14.0470  -12.7210    9.4600 H         1 POP1        0.0000
    101 C218      -14.5790  -10.8290    8.5410 C.3       1 POP1        0.0000
    102 H18R      -15.3250  -11.2650    7.8420 H         1 POP1        0.0000
    103 H18S      -14.0890   -9.9680    8.0380 H         1 POP1        0.0000
    104 H18T      -15.1160  -10.4530    9.4380 H         1 POP1        0.0000
    105 C33        -1.6030   -9.1050   -3.0800 C.3       1 POP1        0.0000
    106 H3X        -1.0180   -8.5480   -3.8460 H         1 POP1        0.0000
    107 H3Y        -2.6400   -8.6960   -3.0910 H         1 POP1        0.0000
    108 C34        -1.6670  -10.5870   -3.4790 C.3       1 POP1        0.0000
    109 H4X        -2.2820  -11.1370   -2.7310 H         1 POP1        0.0000
    110 H4Y        -0.6420  -11.0190   -3.4600 H         1 POP1        0.0000
    111 C35        -2.2770  -10.7870   -4.8750 C.3       1 POP1        0.0000
    112 H5X        -1.6450  -10.2570   -5.6240 H         1 POP1        0.0000
    113 H5Y        -3.2880  -10.3220   -4.8980 H         1 POP1        0.0000
    114 C36        -2.4000  -12.2650   -5.2760 C.3       1 POP1        0.0000
    115 H6X        -3.0480  -12.7880   -4.5380 H         1 POP1        0.0000
    116 H6Y        -1.3920  -12.7360   -5.2360 H         1 POP1        0.0000
    117 C37        -2.9860  -12.4550   -6.6840 C.3       1 POP1        0.0000
    118 H7X        -2.3410  -11.9230   -7.4190 H         1 POP1        0.0000
    119 H7Y        -3.9980  -11.9920   -6.7240 H         1 POP1        0.0000
    120 C38        -3.0910  -13.9340   -7.0860 C.3       1 POP1        0.0000
    121 H8X        -3.7480  -14.4620   -6.3590 H         1 POP1        0.0000
    122 H8Y        -2.0800  -14.3960   -7.0250 H         1 POP1        0.0000
    123 C39        -3.6460  -14.1440   -8.5030 C.3       1 POP1        0.0000
    124 H9X        -2.9950  -13.6120   -9.2330 H         1 POP1        0.0000
    125 H9Y        -4.6640  -13.6990   -8.5700 H         1 POP1        0.0000
    126 C310       -3.7180  -15.6290   -8.8880 C.3       1 POP1        0.0000
    127 H10X       -4.3770  -16.1610   -8.1660 H         1 POP1        0.0000
    128 H10Y       -2.7010  -16.0740   -8.8090 H         1 POP1        0.0000
    129 C311       -4.2500  -15.8580  -10.3100 C.3       1 POP1        0.0000
    130 H11X       -3.5940  -15.3260  -11.0350 H         1 POP1        0.0000
    131 H11Y       -5.2710  -15.4250  -10.3950 H         1 POP1        0.0000
    132 C312       -4.3020  -17.3460  -10.6830 C.3       1 POP1        0.0000
    133 H12X       -4.9620  -17.8810   -9.9640 H         1 POP1        0.0000
    134 H12Y       -3.2810  -17.7810  -10.5940 H         1 POP1        0.0000
    135 C313       -4.8210  -17.5800  -12.1080 C.3       1 POP1        0.0000
    136 H13X       -4.1620  -17.0440  -12.8280 H         1 POP1        0.0000
    137 H13Y       -5.8430  -17.1500  -12.2000 H         1 POP1        0.0000
    138 C314       -4.8660  -19.0670  -12.4810 C.3       1 POP1        0.0000
    139 H14X       -5.5260  -19.6040  -11.7630 H         1 POP1        0.0000
    140 H14Y       -3.8430  -19.4980  -12.3870 H         1 POP1        0.0000
    141 C315       -5.3790  -19.3020  -13.9070 C.3       1 POP1        0.0000
    142 H15X       -4.7180  -18.7560  -14.6190 H         1 POP1        0.0000
    143 H15Y       -6.3990  -18.8640  -13.9960 H         1 POP1        0.0000
    144 C316       -5.4270  -20.7820  -14.2940 C.3       1 POP1        0.0000
    145 H16X       -6.0990  -21.3400  -13.6070 H         1 POP1        0.0000
    146 H16Y       -4.4130  -21.2320  -14.2330 H         1 POP1        0.0000
    147 H16Z       -5.8040  -20.9040  -15.3320 H         1 POP1        0.0000
@<TRIPOS>BOND
     1  147  144 1 
     2  142  141 1 
     3  144  146 1 
     4  144  141 1 
     5  144  145 1 
     6  143  141 1 
     7  141  138 1 
     8  136  135 1 
     9  138  140 1 
    10  138  135 1 
    11  138  139 1 
    12  137  135 1 
    13  135  132 1 
    14  130  129 1 
    15  132  134 1 
    16  132  129 1 
    17  132  133 1 
    18  131  129 1 
    19  129  126 1 
    20  124  123 1 
    21  126  128 1 
    22  126  123 1 
    23  126  127 1 
    24  125  123 1 
    25  123  120 1 
    26  118  117 1 
    27  120  122 1 
    28  120  117 1 
    29  120  121 1 
    30  119  117 1 
    31  117  114 1 
    32  112  111 1 
    33  114  116 1 
    34  114  111 1 
    35  114  115 1 
    36  113  111 1 
    37  111  108 1 
    38  106  105 1 
    39  108  110 1 
    40  108  105 1 
    41  108  109 1 
    42  107  105 1 
    43  105   55 1 
    44   54   53 2 
    45   55   57 1 
    46   55   53 1 
    47   55   56 1 
    48   10    8 2 
    49   18   15 2 
    50   53   52 1 
    51    6    5 1 
    52   32   31 1 
    53   16   15 1 
    54   15   14 1 
    55   15   17 1 
    56    2    1 1 
    57   51   49 1 
    58    8    9 1 
    59    8    7 1 
    60    8   11 1 
    61   14   12 1 
    62   52   49 1 
    63    5    7 1 
    64    5    1 1 
    65    5   12 1 
    66   31   36 1 
    67   31    1 1 
    68   31   27 1 
    69   36   33 1 
    70    1    3 1 
    71   20   19 1 
    72   42   41 1 
    73   49   41 1 
    74   49   50 1 
    75   29   27 1 
    76   29   30 1 
    77   12   19 1 
    78   12   13 1 
    79   45   44 2 
    80   27   19 1 
    81   27   28 1 
    82   37   33 1 
    83   37   38 1 
    84   19   21 1 
    85   41   38 1 
    86   41   43 1 
    87   33   35 2 
    88   33   34 1 
    89    4    3 1 
    90   24   23 1 
    91   59   58 1 
    92   44   43 1 
    93   44   46 1 
    94   38   39 1 
    95   38   40 1 
    96   23   22 1 
    97   60   58 1 
    98   21   22 1 
    99   65   64 1 
   100   58   46 1 
   101   58   61 1 
   102   25   22 2 
   103   46   48 1 
   104   46   47 1 
   105   22   26 1 
   106   66   64 1 
   107   71   70 1 
   108   64   61 1 
   109   64   67 1 
   110   61   63 1 
   111   61   62 1 
   112   72   70 1 
   113   77   76 1 
   114   70   67 1 
   115   70   73 1 
   116   67   69 1 
   117   67   68 1 
   118   76   73 1 
   119   76   78 2 
   120   79   78 1 
   121   73   75 1 
   122   73   74 1 
   123   78   80 1 
   124   84   83 1 
   125   85   83 1 
   126   83   80 1 
   127   83   86 1 
   128   90   89 1 
   129   91   89 1 
   130   80   82 1 
   131   80   81 1 
   132   89   86 1 
   133   89   92 1 
   134   96   95 1 
   135   97   95 1 
   136   86   88 1 
   137   86   87 1 
   138   95   92 1 
   139   95   98 1 
   140  102  101 1 
   141  103  101 1 
   142   92   94 1 
   143   92   93 1 
   144  101   98 1 
   145  101  104 1 
   146   98  100 1 
   147   98   99 1 
