@<TRIPOS>MOLECULE
C:\Users\Praveer\PycharmProjects\pdb_to_mol2_converter\data\pdb\popi14.pdb
  140   140     0     0     0
SMALL
GASTEIGER

@<TRIPOS>ATOM
      1 C12         1.6440    0.1580    0.0880 C.3       1 POP1        0.0000
      2 H2          1.9230   -0.4070   -0.8340 H         1 POP1        0.0000
      3 O2          2.3010   -0.4730    1.1880 O.3       1 POP1        0.0000
      4 HO2         1.9820   -1.3930    1.2400 H         1 POP1        0.0000
      5 C13         2.1050    1.5990   -0.1070 C.3       1 POP1        0.0000
      6 H3          1.5860    2.0250   -0.9960 H         1 POP1        0.0000
      7 O3          3.5040    1.6800   -0.3610 O.3       1 POP1        0.0000
      8 HO3         3.6650    2.6130   -0.1500 H         1 POP1        0.0000
      9 C14         1.7430    2.4410    1.1070 C.3       1 POP1        0.0000
     10 H4          2.1970    1.9630    2.0060 H         1 POP1        0.0000
     11 O4          2.3230    3.7480    0.9910 O.3       1 POP1        0.0000
     12 P4          1.6430    5.0560    0.2680 P.3       1 POP1        0.0000
     13 OP42        2.7450    6.1070    0.2340 O.3       1 POP1        0.0000
     14 OP43        0.4780    5.4280    1.1810 O.3       1 POP1        0.0000
     15 OP44        1.2120    4.5720   -1.1090 O.2       1 POP1        0.0000
     16 C15         0.2270    2.4220    1.2810 C.3       1 POP1        0.0000
     17 H5         -0.2130    2.9130    0.3740 H         1 POP1        0.0000
     18 O5         -0.1750    3.2000    2.4050 O.3       1 POP1        0.0000
     19 HO5         0.0620    4.1170    2.0980 H         1 POP1        0.0000
     20 C16        -0.4120    1.0320    1.3070 C.3       1 POP1        0.0000
     21 H6         -0.1620    0.5890    2.2990 H         1 POP1        0.0000
     22 O6         -1.8270    1.1850    1.2270 O.3       1 POP1        0.0000
     23 HO6        -1.9800    1.9840    1.7430 H         1 POP1        0.0000
     24 C11         0.1210    0.1040    0.2190 C.3       1 POP1        0.0000
     25 H1         -0.2440    0.5710   -0.7320 H         1 POP1        0.0000
     26 P          -0.3330   -2.3180    1.4100 P.3       1 POP1        0.0000
     27 O13        -0.8640   -1.8030    2.6880 O.3       1 POP1        0.0000
     28 O14         1.0410   -2.8770    1.4250 O.2       1 POP1        0.0000
     29 O12        -0.4240   -1.2210    0.1910 O.3       1 POP1        0.0000
     30 O11        -1.3150   -3.4570    0.9040 O.3       1 POP1        0.0000
     31 C1         -1.7830   -4.4530    1.8170 C.3       1 POP1        0.0000
     32 HA         -2.8140   -4.2010    2.1500 H         1 POP1        0.0000
     33 HB         -1.1440   -4.5450    2.7300 H         1 POP1        0.0000
     34 C2         -1.7900   -5.8300    1.1190 C.3       1 POP1        0.0000
     35 HS         -2.5860   -5.7950    0.3360 H         1 POP1        0.0000
     36 O21        -2.0430   -6.8290    2.1290 O.3       1 POP1        0.0000
     37 C21        -2.6570   -7.9180    1.7070 C.2       1 POP1        0.0000
     38 O22        -3.0970   -8.1130    0.5870 O.2       1 POP1        0.0000
     39 C22        -2.7450   -8.9190    2.8610 C.3       1 POP1        0.0000
     40 H2R        -3.2390   -8.4130    3.7160 H         1 POP1        0.0000
     41 H2S        -1.7110   -9.1900    3.1570 H         1 POP1        0.0000
     42 C3         -0.4220   -6.0860    0.4140 C.3       1 POP1        0.0000
     43 HX          0.3630   -6.0310    1.2010 H         1 POP1        0.0000
     44 HY         -0.2070   -5.2550   -0.2980 H         1 POP1        0.0000
     45 O31        -0.3590   -7.3820   -0.2230 O.3       1 POP1        0.0000
     46 C31        -0.9330   -7.4270   -1.4230 C.2       1 POP1        0.0000
     47 O32        -1.3740   -6.4800   -2.0430 O.2       1 POP1        0.0000
     48 C32        -0.9480   -8.8770   -1.9020 C.3       1 POP1        0.0000
     49 H2X        -1.5380   -9.4620   -1.1660 H         1 POP1        0.0000
     50 H2Y         0.0940   -9.2530   -1.9090 H         1 POP1        0.0000
     51 C23        -3.5350  -10.1860    2.4650 C.3       1 POP1        0.0000
     52 H3R        -3.0300  -10.6860    1.6060 H         1 POP1        0.0000
     53 H3S        -4.5570   -9.8980    2.1270 H         1 POP1        0.0000
     54 C24        -3.6650  -11.1940    3.6150 C.3       1 POP1        0.0000
     55 H4R        -4.1840  -10.7080    4.4720 H         1 POP1        0.0000
     56 H4S        -2.6490  -11.4920    3.9580 H         1 POP1        0.0000
     57 C25        -4.4450  -12.4510    3.2020 C.3       1 POP1        0.0000
     58 H5R        -3.9310  -12.9260    2.3360 H         1 POP1        0.0000
     59 H5S        -5.4640  -12.1530    2.8650 H         1 POP1        0.0000
     60 C26        -4.5740  -13.4830    4.3310 C.3       1 POP1        0.0000
     61 H6R        -5.1070  -13.0210    5.1920 H         1 POP1        0.0000
     62 H6S        -3.5570  -13.7750    4.6770 H         1 POP1        0.0000
     63 C27        -5.3340  -14.7430    3.8860 C.3       1 POP1        0.0000
     64 H7R        -4.8090  -15.1810    3.0060 H         1 POP1        0.0000
     65 H7S        -6.3550  -14.4420    3.5570 H         1 POP1        0.0000
     66 C28        -5.4440  -15.8000    5.0000 C.3       1 POP1        0.0000
     67 H8R        -5.9190  -15.3150    5.8820 H         1 POP1        0.0000
     68 H8S        -4.4180  -16.0980    5.3110 H         1 POP1        0.0000
     69 C29        -6.2160  -17.0130    4.5350 C.2       1 POP1        0.0000
     70 H91        -5.7790  -17.5280    3.6650 H         1 POP1        0.0000
     71 C210       -7.3630  -17.4840    5.0560 C.2       1 POP1        0.0000
     72 H101       -7.8270  -18.3740    4.6010 H         1 POP1        0.0000
     73 C211       -8.1080  -16.9160    6.2390 C.3       1 POP1        0.0000
     74 H11R       -7.4100  -16.4530    6.9720 H         1 POP1        0.0000
     75 H11S       -8.6350  -17.7320    6.7820 H         1 POP1        0.0000
     76 C212       -9.1420  -15.8550    5.8220 C.3       1 POP1        0.0000
     77 H12R       -9.8710  -16.2990    5.1080 H         1 POP1        0.0000
     78 H12S       -8.6240  -15.0170    5.3010 H         1 POP1        0.0000
     79 C213       -9.9090  -15.2900    7.0260 C.3       1 POP1        0.0000
     80 H13R       -9.1830  -14.8390    7.7400 H         1 POP1        0.0000
     81 H13S      -10.4260  -16.1240    7.5510 H         1 POP1        0.0000
     82 C214      -10.9450  -14.2300    6.6280 C.3       1 POP1        0.0000
     83 H14R      -11.6640  -14.6760    5.9060 H         1 POP1        0.0000
     84 H14S      -10.4280  -13.3880    6.1150 H         1 POP1        0.0000
     85 C215      -11.7190  -13.6860    7.8370 C.3       1 POP1        0.0000
     86 H15R      -10.9990  -13.2420    8.5600 H         1 POP1        0.0000
     87 H15S      -12.2350  -14.5300    8.3470 H         1 POP1        0.0000
     88 C216      -12.7580  -12.6250    7.4470 C.3       1 POP1        0.0000
     89 H16R      -13.4750  -13.0670    6.7190 H         1 POP1        0.0000
     90 H16S      -12.2420  -11.7780    6.9420 H         1 POP1        0.0000
     91 C217      -13.5370  -12.0900    8.6560 C.3       1 POP1        0.0000
     92 H17R      -12.8140  -11.6570    9.3850 H         1 POP1        0.0000
     93 H17S      -14.0470  -12.9440    9.1590 H         1 POP1        0.0000
     94 C218      -14.5770  -11.0290    8.2870 C.3       1 POP1        0.0000
     95 H18R      -15.3220  -11.4470    7.5770 H         1 POP1        0.0000
     96 H18S      -14.0860  -10.1550    7.8060 H         1 POP1        0.0000
     97 H18T      -15.1140  -10.6760    9.1930 H         1 POP1        0.0000
     98 C33        -1.5820   -9.0130   -3.3020 C.3       1 POP1        0.0000
     99 H3X        -0.9750   -8.4510   -4.0470 H         1 POP1        0.0000
    100 H3Y        -2.6040   -8.5660   -3.2950 H         1 POP1        0.0000
    101 C34        -1.6940  -10.4770   -3.7390 C.3       1 POP1        0.0000
    102 H4X        -2.3280  -11.0270   -3.0070 H         1 POP1        0.0000
    103 H4Y        -0.6820  -10.9410   -3.7270 H         1 POP1        0.0000
    104 C35        -2.3000  -10.6290   -5.1400 C.3       1 POP1        0.0000
    105 H5X        -1.6640  -10.0840   -5.8730 H         1 POP1        0.0000
    106 H5Y        -3.3100  -10.1620   -5.1540 H         1 POP1        0.0000
    107 C36        -2.4150  -12.0980   -5.5640 C.3       1 POP1        0.0000
    108 H6X        -3.0630  -12.6380   -4.8370 H         1 POP1        0.0000
    109 H6Y        -1.4050  -12.5660   -5.5290 H         1 POP1        0.0000
    110 C37        -2.9930  -12.2660   -6.9750 C.3       1 POP1        0.0000
    111 H7X        -2.3480  -11.7220   -7.7000 H         1 POP1        0.0000
    112 H7Y        -4.0070  -11.8080   -7.0130 H         1 POP1        0.0000
    113 C38        -3.0860  -13.7390   -7.3900 C.3       1 POP1        0.0000
    114 H8X        -3.7410  -14.2810   -6.6710 H         1 POP1        0.0000
    115 H8Y        -2.0720  -14.1960   -7.3340 H         1 POP1        0.0000
    116 C39        -3.6370  -13.9220   -8.8090 C.3       1 POP1        0.0000
    117 H9X        -2.9850  -13.3750   -9.5270 H         1 POP1        0.0000
    118 H9Y        -4.6550  -13.4770   -8.8680 H         1 POP1        0.0000
    119 C310       -3.7070  -15.3990   -9.2190 C.3       1 POP1        0.0000
    120 H10X       -4.3660  -15.9450   -8.5070 H         1 POP1        0.0000
    121 H10Y       -2.6890  -15.8440   -9.1460 H         1 POP1        0.0000
    122 C311       -4.2360  -15.5910  -10.6450 C.3       1 POP1        0.0000
    123 H11X       -3.5800  -15.0400  -11.3550 H         1 POP1        0.0000
    124 H11Y       -5.2570  -15.1540  -10.7180 H         1 POP1        0.0000
    125 C312       -4.2900  -17.0680  -11.0530 C.3       1 POP1        0.0000
    126 H12X       -4.9500  -17.6190  -10.3460 H         1 POP1        0.0000
    127 H12Y       -3.2690  -17.5050  -10.9730 H         1 POP1        0.0000
    128 C313       -4.8080  -17.2650  -12.4830 C.3       1 POP1        0.0000
    129 H13X       -4.1480  -16.7110  -13.1890 H         1 POP1        0.0000
    130 H13Y       -5.8300  -16.8310  -12.5640 H         1 POP1        0.0000
    131 C314       -4.8530  -18.7430  -12.8930 C.3       1 POP1        0.0000
    132 H14X       -5.5130  -19.2960  -12.1880 H         1 POP1        0.0000
    133 H14Y       -3.8310  -19.1760  -12.8100 H         1 POP1        0.0000
    134 C315       -5.3680  -18.9430  -14.3240 C.3       1 POP1        0.0000
    135 H15X       -4.7070  -18.3810  -15.0230 H         1 POP1        0.0000
    136 H15Y       -6.3880  -18.5030  -14.4020 H         1 POP1        0.0000
    137 C316       -5.4170  -20.4130  -14.7470 C.3       1 POP1        0.0000
    138 H16X       -6.0900  -20.9880  -14.0750 H         1 POP1        0.0000
    139 H16Y       -4.4030  -20.8650  -14.6990 H         1 POP1        0.0000
    140 H16Z       -5.7950  -20.5070  -15.7880 H         1 POP1        0.0000
@<TRIPOS>BOND
     1  140  137 1 
     2  135  134 1 
     3  137  139 1 
     4  137  134 1 
     5  137  138 1 
     6  136  134 1 
     7  134  131 1 
     8  129  128 1 
     9  131  133 1 
    10  131  128 1 
    11  131  132 1 
    12  130  128 1 
    13  128  125 1 
    14  123  122 1 
    15  125  127 1 
    16  125  122 1 
    17  125  126 1 
    18  124  122 1 
    19  122  119 1 
    20  117  116 1 
    21  119  121 1 
    22  119  116 1 
    23  119  120 1 
    24  118  116 1 
    25  116  113 1 
    26  111  110 1 
    27  113  115 1 
    28  113  110 1 
    29  113  114 1 
    30  112  110 1 
    31  110  107 1 
    32  105  104 1 
    33  107  109 1 
    34  107  104 1 
    35  107  108 1 
    36  106  104 1 
    37  104  101 1 
    38   99   98 1 
    39  101  103 1 
    40  101   98 1 
    41  101  102 1 
    42   98  100 1 
    43   98   48 1 
    44   47   46 2 
    45   50   48 1 
    46   48   46 1 
    47   48   49 1 
    48   46   45 1 
    49   15   12 2 
    50    6    5 1 
    51    2    1 1 
    52   25   24 1 
    53    7    8 1 
    54    7    5 1 
    55   44   42 1 
    56   45   42 1 
    57    5    1 1 
    58    5    9 1 
    59    1   24 1 
    60    1    3 1 
    61   29   24 1 
    62   29   26 1 
    63   24   20 1 
    64   13   12 1 
    65   12   11 1 
    66   12   14 1 
    67   35   34 1 
    68   17   16 1 
    69   42   34 1 
    70   42   43 1 
    71   38   37 2 
    72   30   26 1 
    73   30   31 1 
    74   11    9 1 
    75    9   16 1 
    76    9   10 1 
    77   34   31 1 
    78   34   36 1 
    79    3    4 1 
    80   22   20 1 
    81   22   23 1 
    82   16   20 1 
    83   16   18 1 
    84   20   21 1 
    85   26   28 2 
    86   26   27 1 
    87   52   51 1 
    88   37   36 1 
    89   37   39 1 
    90   31   32 1 
    91   31   33 1 
    92   19   18 1 
    93   53   51 1 
    94   58   57 1 
    95   51   39 1 
    96   51   54 1 
    97   39   41 1 
    98   39   40 1 
    99   59   57 1 
   100   64   63 1 
   101   57   54 1 
   102   57   60 1 
   103   65   63 1 
   104   54   56 1 
   105   54   55 1 
   106   70   69 1 
   107   63   60 1 
   108   63   66 1 
   109   60   62 1 
   110   60   61 1 
   111   69   66 1 
   112   69   71 2 
   113   72   71 1 
   114   66   68 1 
   115   66   67 1 
   116   71   73 1 
   117   77   76 1 
   118   78   76 1 
   119   76   73 1 
   120   76   79 1 
   121   83   82 1 
   122   84   82 1 
   123   73   75 1 
   124   73   74 1 
   125   82   79 1 
   126   82   85 1 
   127   89   88 1 
   128   90   88 1 
   129   79   81 1 
   130   79   80 1 
   131   88   85 1 
   132   88   91 1 
   133   95   94 1 
   134   96   94 1 
   135   85   87 1 
   136   85   86 1 
   137   94   91 1 
   138   94   97 1 
   139   91   93 1 
   140   91   92 1 
