@<TRIPOS>MOLECULE
C:\Users\Praveer\PycharmProjects\pdb_to_mol2_converter\data\pdb\popi2d.pdb
  144   144     0     0     0
SMALL
GASTEIGER

@<TRIPOS>ATOM
      1 C12         1.8830    0.0030    0.0880 C.3       1 POP1        0.0000
      2 H2          2.1620   -0.6510   -0.7740 H         1 POP1        0.0000
      3 O2          2.4460   -0.5580    1.2600 O.3       1 POP1        0.0000
      4 HO2         3.3830   -0.3650    1.1170 H         1 POP1        0.0000
      5 C13         2.5260    1.3820   -0.1180 C.3       1 POP1        0.0000
      6 H3          2.1620    1.8170   -1.0800 H         1 POP1        0.0000
      7 O3          3.9620    1.2500   -0.1630 O.3       1 POP1        0.0000
      8 P3          4.8020    0.7800   -1.5240 P.3       1 POP1        0.0000
      9 OP32        5.1680    2.0440   -2.2990 O.3       1 POP1        0.0000
     10 OP33        6.0350    0.0650   -0.9870 O.3       1 POP1        0.0000
     11 OP34        3.8970   -0.1630   -2.3090 O.2       1 POP1        0.0000
     12 C14         2.0810    2.3640    0.9800 C.3       1 POP1        0.0000
     13 H4          2.5030    1.9090    1.9130 H         1 POP1        0.0000
     14 O4          2.6880    3.6630    0.8580 O.3       1 POP1        0.0000
     15 P4          2.1080    4.9430    0.0010 P.3       1 POP1        0.0000
     16 OP42        1.3520    5.6980    1.1990 O.3       1 POP1        0.0000
     17 HP42        1.6530    6.6150    1.1650 H         1 POP1        0.0000
     18 OP43        1.0710    4.5770   -1.0500 O.2       1 POP1        0.0000
     19 OP44        3.1830    5.9500   -0.3830 O.3       1 POP1        0.0000
     20 C15         0.5690    2.3920    1.2410 C.3       1 POP1        0.0000
     21 H5          0.1340    2.9660    0.3880 H         1 POP1        0.0000
     22 O5          0.3160    3.1400    2.4290 O.3       1 POP1        0.0000
     23 HO5         0.8710    3.9170    2.3020 H         1 POP1        0.0000
     24 C16        -0.1870    1.0550    1.2050 C.3       1 POP1        0.0000
     25 H6         -0.0630    0.6060    2.2210 H         1 POP1        0.0000
     26 O6         -1.5880    1.2330    0.9740 O.3       1 POP1        0.0000
     27 HO6        -1.8610    0.3630    0.6620 H         1 POP1        0.0000
     28 C11         0.3530    0.0420    0.2000 C.3       1 POP1        0.0000
     29 H1          0.0770    0.4910   -0.7900 H         1 POP1        0.0000
     30 P          -0.3240   -2.3490    1.4610 P.3       1 POP1        0.0000
     31 O13        -0.6220   -1.7430    2.7790 O.3       1 POP1        0.0000
     32 O14         0.8130   -3.2900    1.3660 O.2       1 POP1        0.0000
     33 O12        -0.3300   -1.2280    0.2410 O.3       1 POP1        0.0000
     34 O11        -1.6130   -3.2330    1.1070 O.3       1 POP1        0.0000
     35 C1         -1.9300   -4.3680    1.9380 C.3       1 POP1        0.0000
     36 HA         -2.9520   -4.2450    2.3610 H         1 POP1        0.0000
     37 HB         -1.2370   -4.4880    2.8080 H         1 POP1        0.0000
     38 C2         -1.9130   -5.7150    1.1560 C.3       1 POP1        0.0000
     39 HS         -2.7270   -5.6670    0.3940 H         1 POP1        0.0000
     40 O21        -2.1330   -6.7580    2.1310 O.3       1 POP1        0.0000
     41 C21        -2.7520   -7.8420    1.7060 C.2       1 POP1        0.0000
     42 O22        -3.2380   -8.0160    0.6020 O.2       1 POP1        0.0000
     43 C22        -2.7790   -8.8670    2.8450 C.3       1 POP1        0.0000
     44 H2R        -3.2600   -8.3860    3.7210 H         1 POP1        0.0000
     45 H2S        -1.7290   -9.1120    3.1060 H         1 POP1        0.0000
     46 C3         -0.5620   -5.9460    0.4080 C.3       1 POP1        0.0000
     47 HX          0.2470   -5.8620    1.1690 H         1 POP1        0.0000
     48 HY         -0.3900   -5.1170   -0.3180 H         1 POP1        0.0000
     49 O31        -0.4800   -7.2550   -0.2090 O.3       1 POP1        0.0000
     50 C31        -1.0530   -7.3420   -1.4050 C.2       1 POP1        0.0000
     51 O32        -1.5550   -6.4320   -2.0300 O.2       1 POP1        0.0000
     52 C32        -0.9880   -8.7990   -1.8720 C.3       1 POP1        0.0000
     53 H2X        -1.5520   -9.4080   -1.1350 H         1 POP1        0.0000
     54 H2Y         0.0720   -9.1220   -1.8710 H         1 POP1        0.0000
     55 C23        -3.5460  -10.1530    2.4570 C.3       1 POP1        0.0000
     56 H3R        -3.0360  -10.6430    1.5960 H         1 POP1        0.0000
     57 H3S        -4.5770   -9.8860    2.1270 H         1 POP1        0.0000
     58 C24        -3.6570  -11.1660    3.6060 C.3       1 POP1        0.0000
     59 H4R        -4.1740  -10.6910    4.4700 H         1 POP1        0.0000
     60 H4S        -2.6380  -11.4630    3.9410 H         1 POP1        0.0000
     61 C25        -4.4350  -12.4250    3.1940 C.3       1 POP1        0.0000
     62 H5R        -3.9220  -12.9020    2.3280 H         1 POP1        0.0000
     63 H5S        -5.4550  -12.1300    2.8590 H         1 POP1        0.0000
     64 C26        -4.5570  -13.4500    4.3290 C.3       1 POP1        0.0000
     65 H6R        -5.0830  -12.9810    5.1910 H         1 POP1        0.0000
     66 H6S        -3.5380  -13.7390    4.6700 H         1 POP1        0.0000
     67 C27        -5.3220  -14.7110    3.8990 C.3       1 POP1        0.0000
     68 H7R        -4.8020  -15.1550    3.0200 H         1 POP1        0.0000
     69 H7S        -6.3440  -14.4100    3.5730 H         1 POP1        0.0000
     70 C28        -5.4280  -15.7590    5.0220 C.3       1 POP1        0.0000
     71 H8R        -5.9000  -15.2720    5.9050 H         1 POP1        0.0000
     72 H8S        -4.4000  -16.0550    5.3270 H         1 POP1        0.0000
     73 C29        -6.1990  -16.9740    4.5640 C.2       1 POP1        0.0000
     74 H91        -5.7650  -17.4860    3.6910 H         1 POP1        0.0000
     75 C210       -7.3450  -17.4540    5.0840 C.2       1 POP1        0.0000
     76 H101       -7.8010  -18.3460    4.6250 H         1 POP1        0.0000
     77 C211       -8.1010  -16.9010    6.2670 C.3       1 POP1        0.0000
     78 H11R       -7.4110  -16.4390    7.0090 H         1 POP1        0.0000
     79 H11S       -8.6260  -17.7250    6.8000 H         1 POP1        0.0000
     80 C212       -9.1420  -15.8450    5.8510 C.3       1 POP1        0.0000
     81 H12R       -9.8710  -16.2950    5.1390 H         1 POP1        0.0000
     82 H12S       -8.6290  -15.0070    5.3270 H         1 POP1        0.0000
     83 C213       -9.9110  -15.2780    7.0530 C.3       1 POP1        0.0000
     84 H13R       -9.1870  -14.8250    7.7660 H         1 POP1        0.0000
     85 H13S      -10.4290  -16.1110    7.5790 H         1 POP1        0.0000
     86 C214      -10.9470  -14.2190    6.6510 C.3       1 POP1        0.0000
     87 H14R      -11.6660  -14.6670    5.9300 H         1 POP1        0.0000
     88 H14S      -10.4290  -13.3790    6.1360 H         1 POP1        0.0000
     89 C215      -11.7200  -13.6720    7.8580 C.3       1 POP1        0.0000
     90 H15R      -11.0000  -13.2260    8.5800 H         1 POP1        0.0000
     91 H15S      -12.2360  -14.5150    8.3710 H         1 POP1        0.0000
     92 C216      -12.7590  -12.6130    7.4670 C.3       1 POP1        0.0000
     93 H16R      -13.4760  -13.0560    6.7400 H         1 POP1        0.0000
     94 H16S      -12.2440  -11.7660    6.9600 H         1 POP1        0.0000
     95 C217      -13.5370  -12.0750    8.6750 C.3       1 POP1        0.0000
     96 H17R      -12.8140  -11.6410    9.4020 H         1 POP1        0.0000
     97 H17S      -14.0470  -12.9280    9.1800 H         1 POP1        0.0000
     98 C218      -14.5770  -11.0150    8.3030 C.3       1 POP1        0.0000
     99 H18R      -15.3230  -11.4350    7.5940 H         1 POP1        0.0000
    100 H18S      -14.0870  -10.1430    7.8200 H         1 POP1        0.0000
    101 H18T      -15.1140  -10.6600    9.2090 H         1 POP1        0.0000
    102 C33        -1.6070   -8.9820   -3.2760 C.3       1 POP1        0.0000
    103 H3X        -1.0120   -8.4120   -4.0260 H         1 POP1        0.0000
    104 H3Y        -2.6410   -8.5650   -3.2830 H         1 POP1        0.0000
    105 C34        -1.6770  -10.4550   -3.6970 C.3       1 POP1        0.0000
    106 H4X        -2.2960  -11.0130   -2.9580 H         1 POP1        0.0000
    107 H4Y        -0.6530  -10.8910   -3.6810 H         1 POP1        0.0000
    108 C35        -2.2810  -10.6330   -5.0970 C.3       1 POP1        0.0000
    109 H5X        -1.6490  -10.0880   -5.8340 H         1 POP1        0.0000
    110 H5Y        -3.2940  -10.1700   -5.1150 H         1 POP1        0.0000
    111 C36        -2.3950  -12.1050   -5.5180 C.3       1 POP1        0.0000
    112 H6X        -3.0410  -12.6410   -4.7880 H         1 POP1        0.0000
    113 H6Y        -1.3840  -12.5700   -5.4820 H         1 POP1        0.0000
    114 C37        -2.9780  -12.2750   -6.9290 C.3       1 POP1        0.0000
    115 H7X        -2.3330  -11.7290   -7.6540 H         1 POP1        0.0000
    116 H7Y        -3.9900  -11.8140   -6.9630 H         1 POP1        0.0000
    117 C38        -3.0780  -13.7480   -7.3550 C.3       1 POP1        0.0000
    118 H8X        -3.7340  -14.2880   -6.6360 H         1 POP1        0.0000
    119 H8Y        -2.0660  -14.2080   -7.3010 H         1 POP1        0.0000
    120 C39        -3.6320  -13.9310   -8.7760 C.3       1 POP1        0.0000
    121 H9X        -2.9810  -13.3830   -9.4940 H         1 POP1        0.0000
    122 H9Y        -4.6500  -13.4840   -8.8330 H         1 POP1        0.0000
    123 C310       -3.7070  -15.4080   -9.1950 C.3       1 POP1        0.0000
    124 H10X       -4.3660  -15.9550   -8.4840 H         1 POP1        0.0000
    125 H10Y       -2.6900  -15.8550   -9.1240 H         1 POP1        0.0000
    126 C311       -4.2380  -15.6070  -10.6230 C.3       1 POP1        0.0000
    127 H11X       -3.5820  -15.0570  -11.3350 H         1 POP1        0.0000
    128 H11Y       -5.2590  -15.1700  -10.6970 H         1 POP1        0.0000
    129 C312       -4.2930  -17.0860  -11.0340 C.3       1 POP1        0.0000
    130 H12X       -4.9530  -17.6360  -10.3260 H         1 POP1        0.0000
    131 H12Y       -3.2720  -17.5240  -10.9530 H         1 POP1        0.0000
    132 C313       -4.8110  -17.2900  -12.4650 C.3       1 POP1        0.0000
    133 H13X       -4.1530  -16.7390  -13.1730 H         1 POP1        0.0000
    134 H13Y       -5.8340  -16.8580  -12.5470 H         1 POP1        0.0000
    135 C314       -4.8570  -18.7700  -12.8730 C.3       1 POP1        0.0000
    136 H14X       -5.5170  -19.3230  -12.1670 H         1 POP1        0.0000
    137 H14Y       -3.8350  -19.2030  -12.7890 H         1 POP1        0.0000
    138 C315       -5.3710  -18.9750  -14.3040 C.3       1 POP1        0.0000
    139 H15X       -4.7110  -18.4150  -15.0050 H         1 POP1        0.0000
    140 H15Y       -6.3920  -18.5360  -14.3850 H         1 POP1        0.0000
    141 C316       -5.4210  -20.4460  -14.7260 C.3       1 POP1        0.0000
    142 H16X       -6.0940  -21.0210  -14.0530 H         1 POP1        0.0000
    143 H16Y       -4.4070  -20.8990  -14.6770 H         1 POP1        0.0000
    144 H16Z       -5.7990  -20.5430  -15.7660 H         1 POP1        0.0000
@<TRIPOS>BOND
     1  144  141 1 
     2  139  138 1 
     3  141  143 1 
     4  141  138 1 
     5  141  142 1 
     6  140  138 1 
     7  138  135 1 
     8  133  132 1 
     9  135  137 1 
    10  135  132 1 
    11  135  136 1 
    12  134  132 1 
    13  132  129 1 
    14  127  126 1 
    15  129  131 1 
    16  129  126 1 
    17  129  130 1 
    18  128  126 1 
    19  126  123 1 
    20  121  120 1 
    21  123  125 1 
    22  123  120 1 
    23  123  124 1 
    24  122  120 1 
    25  120  117 1 
    26  115  114 1 
    27  117  119 1 
    28  117  114 1 
    29  117  118 1 
    30  116  114 1 
    31  114  111 1 
    32  109  108 1 
    33  111  113 1 
    34  111  108 1 
    35  111  112 1 
    36  110  108 1 
    37  108  105 1 
    38  103  102 1 
    39  105  107 1 
    40  105  102 1 
    41  105  106 1 
    42  104  102 1 
    43  102   52 1 
    44   11    8 2 
    45    9    8 1 
    46   51   50 2 
    47   52   54 1 
    48   52   50 1 
    49   52   53 1 
    50    8   10 1 
    51    8    7 1 
    52   50   49 1 
    53    6    5 1 
    54   18   15 2 
    55   29   28 1 
    56    2    1 1 
    57   19   15 1 
    58   48   46 1 
    59   49   46 1 
    60    7    5 1 
    61    5    1 1 
    62    5   12 1 
    63   15   14 1 
    64   15   16 1 
    65    1   28 1 
    66    1    3 1 
    67   28   33 1 
    68   28   24 1 
    69   33   30 1 
    70   21   20 1 
    71   39   38 1 
    72   46   38 1 
    73   46   47 1 
    74   42   41 2 
    75   27   26 1 
    76   14   12 1 
    77   26   24 1 
    78   12   20 1 
    79   12   13 1 
    80   34   30 1 
    81   34   35 1 
    82    4    3 1 
    83   38   35 1 
    84   38   40 1 
    85   17   16 1 
    86   24   20 1 
    87   24   25 1 
    88   20   22 1 
    89   32   30 2 
    90   30   31 1 
    91   56   55 1 
    92   41   40 1 
    93   41   43 1 
    94   35   36 1 
    95   35   37 1 
    96   57   55 1 
    97   23   22 1 
    98   62   61 1 
    99   55   43 1 
   100   55   58 1 
   101   43   45 1 
   102   43   44 1 
   103   63   61 1 
   104   68   67 1 
   105   61   58 1 
   106   61   64 1 
   107   69   67 1 
   108   58   60 1 
   109   58   59 1 
   110   74   73 1 
   111   67   64 1 
   112   67   70 1 
   113   64   66 1 
   114   64   65 1 
   115   73   70 1 
   116   73   75 2 
   117   76   75 1 
   118   70   72 1 
   119   70   71 1 
   120   75   77 1 
   121   81   80 1 
   122   82   80 1 
   123   80   77 1 
   124   80   83 1 
   125   87   86 1 
   126   88   86 1 
   127   77   79 1 
   128   77   78 1 
   129   86   83 1 
   130   86   89 1 
   131   93   92 1 
   132   94   92 1 
   133   83   85 1 
   134   83   84 1 
   135   92   89 1 
   136   92   95 1 
   137   99   98 1 
   138  100   98 1 
   139   89   91 1 
   140   89   90 1 
   141   98   95 1 
   142   98  101 1 
   143   95   97 1 
   144   95   96 1 
