@<TRIPOS>MOLECULE
C:\Users\Praveer\PycharmProjects\pdb_to_mol2_converter\data\pdb\popi2a.pdb
  144   144     0     0     0
SMALL
GASTEIGER

@<TRIPOS>ATOM
      1 C12         1.6850    0.0840    0.3100 C.3       1 POP1        0.0000
      2 H2          2.1060   -0.5950   -0.4690 H         1 POP1        0.0000
      3 O2          2.1840   -0.3590    1.5710 O.3       1 POP1        0.0000
      4 HO2         1.9530   -1.2960    1.6480 H         1 POP1        0.0000
      5 C13         2.1360    1.4920   -0.0420 C.3       1 POP1        0.0000
      6 H3          1.6460    1.7510   -1.0200 H         1 POP1        0.0000
      7 O3          3.5770    1.5360   -0.1300 O.3       1 POP1        0.0000
      8 P3          4.3090    1.7010   -1.5800 P.3       1 POP1        0.0000
      9 OP32        3.9790    3.2560   -1.6620 O.3       1 POP1        0.0000
     10 HP32        3.2310    3.4070   -1.0560 H         1 POP1        0.0000
     11 OP33        5.8130    1.4650   -1.4630 O.3       1 POP1        0.0000
     12 OP34        3.5430    0.9490   -2.6540 O.2       1 POP1        0.0000
     13 C14         1.5840    2.4860    0.9760 C.3       1 POP1        0.0000
     14 H4          2.1450    2.3070    1.9280 H         1 POP1        0.0000
     15 O4          1.7890    3.8510    0.6140 O.3       1 POP1        0.0000
     16 HO4         1.0260    4.3340    1.0180 H         1 POP1        0.0000
     17 C15         0.1050    2.2970    1.2990 C.3       1 POP1        0.0000
     18 H5         -0.3830    2.8030    0.4120 H         1 POP1        0.0000
     19 O5         -0.2320    2.9370    2.5480 O.3       1 POP1        0.0000
     20 P5         -1.2920    4.2000    2.4560 P.3       1 POP1        0.0000
     21 OP52       -0.5490    5.2000    1.5720 O.2       1 POP1        0.0000
     22 OP53       -2.5240    3.5840    1.7980 O.3       1 POP1        0.0000
     23 OP54       -1.5320    4.6860    3.8800 O.3       1 POP1        0.0000
     24 C16        -0.5110    0.9050    1.2370 C.3       1 POP1        0.0000
     25 H6         -0.3780    0.4630    2.2530 H         1 POP1        0.0000
     26 O6         -1.9110    1.0360    1.0120 O.3       1 POP1        0.0000
     27 HO6        -2.1460    1.9350    1.3530 H         1 POP1        0.0000
     28 C11         0.1670   -0.0190    0.2370 C.3       1 POP1        0.0000
     29 H1         -0.1030    0.4040   -0.7640 H         1 POP1        0.0000
     30 P          -0.2600   -2.4520    1.4270 P.3       1 POP1        0.0000
     31 O13        -0.7680   -1.9450    2.7180 O.3       1 POP1        0.0000
     32 O14         1.0920   -3.0610    1.4460 O.2       1 POP1        0.0000
     33 O12        -0.3280   -1.3610    0.2070 O.3       1 POP1        0.0000
     34 O11        -1.2860   -3.5500    0.9230 O.3       1 POP1        0.0000
     35 C1         -1.7830   -4.5260    1.8360 C.3       1 POP1        0.0000
     36 HA         -2.8100   -4.2520    2.1640 H         1 POP1        0.0000
     37 HB         -1.1480   -4.6280    2.7510 H         1 POP1        0.0000
     38 C2         -1.8030   -5.8940    1.1360 C.3       1 POP1        0.0000
     39 HS         -2.6060   -5.8550    0.3610 H         1 POP1        0.0000
     40 O21        -2.0430   -6.8910    2.1470 O.3       1 POP1        0.0000
     41 C21        -2.6830   -7.9630    1.7310 C.2       1 POP1        0.0000
     42 O22        -3.1450   -8.1510    0.6250 O.2       1 POP1        0.0000
     43 C22        -2.7610   -8.9530    2.8910 C.3       1 POP1        0.0000
     44 H2R        -3.2530   -8.4450    3.7450 H         1 POP1        0.0000
     45 H2S        -1.7250   -9.2200    3.1840 H         1 POP1        0.0000
     46 C3         -0.4380   -6.1430    0.4290 C.3       1 POP1        0.0000
     47 HX          0.3490   -6.0850    1.2130 H         1 POP1        0.0000
     48 HY         -0.2300   -5.3090   -0.2820 H         1 POP1        0.0000
     49 O31        -0.3750   -7.4360   -0.2070 O.3       1 POP1        0.0000
     50 C31        -0.9340   -7.4720   -1.4110 C.2       1 POP1        0.0000
     51 O32        -1.3710   -6.5230   -2.0330 O.2       1 POP1        0.0000
     52 C32        -0.9440   -8.9160   -1.8930 C.3       1 POP1        0.0000
     53 H2X        -1.5290   -9.5060   -1.1560 H         1 POP1        0.0000
     54 H2Y         0.1000   -9.2870   -1.9060 H         1 POP1        0.0000
     55 C23        -3.5480  -10.2170    2.4910 C.3       1 POP1        0.0000
     56 H3R        -3.0410  -10.7160    1.6340 H         1 POP1        0.0000
     57 H3S        -4.5710   -9.9300    2.1540 H         1 POP1        0.0000
     58 C24        -3.6750  -11.2180    3.6430 C.3       1 POP1        0.0000
     59 H4R        -4.1940  -10.7330    4.4990 H         1 POP1        0.0000
     60 H4S        -2.6580  -11.5160    3.9850 H         1 POP1        0.0000
     61 C25        -4.4540  -12.4710    3.2250 C.3       1 POP1        0.0000
     62 H5R        -3.9400  -12.9430    2.3570 H         1 POP1        0.0000
     63 H5S        -5.4720  -12.1710    2.8900 H         1 POP1        0.0000
     64 C26        -4.5760  -13.4990    4.3560 C.3       1 POP1        0.0000
     65 H6R        -5.1050  -13.0320    5.2170 H         1 POP1        0.0000
     66 H6S        -3.5570  -13.7850    4.6980 H         1 POP1        0.0000
     67 C27        -5.3370  -14.7570    3.9150 C.3       1 POP1        0.0000
     68 H7R        -4.8140  -15.1950    3.0340 H         1 POP1        0.0000
     69 H7S        -6.3580  -14.4550    3.5890 H         1 POP1        0.0000
     70 C28        -5.4410  -15.8120    5.0320 C.3       1 POP1        0.0000
     71 H8R        -5.9060  -15.3260    5.9190 H         1 POP1        0.0000
     72 H8S        -4.4120  -16.1130    5.3300 H         1 POP1        0.0000
     73 C29        -6.2200  -17.0210    4.5720 C.2       1 POP1        0.0000
     74 H91        -5.7870  -17.5390    3.7020 H         1 POP1        0.0000
     75 C210       -7.3700  -17.4890    5.0930 C.2       1 POP1        0.0000
     76 H101       -7.8330  -18.3790    4.6390 H         1 POP1        0.0000
     77 C211       -8.1200  -16.9200    6.2730 C.3       1 POP1        0.0000
     78 H11R       -7.4250  -16.4630    7.0120 H         1 POP1        0.0000
     79 H11S       -8.6560  -17.7350    6.8090 H         1 POP1        0.0000
     80 C212       -9.1470  -15.8540    5.8520 C.3       1 POP1        0.0000
     81 H12R       -9.8790  -16.2960    5.1380 H         1 POP1        0.0000
     82 H12S       -8.6240  -15.0210    5.3290 H         1 POP1        0.0000
     83 C213       -9.9120  -15.2800    7.0530 C.3       1 POP1        0.0000
     84 H13R       -9.1850  -14.8280    7.7640 H         1 POP1        0.0000
     85 H13S      -10.4320  -16.1100    7.5820 H         1 POP1        0.0000
     86 C214      -10.9460  -14.2190    6.6510 C.3       1 POP1        0.0000
     87 H14R      -11.6650  -14.6650    5.9290 H         1 POP1        0.0000
     88 H14S      -10.4270  -13.3790    6.1370 H         1 POP1        0.0000
     89 C215      -11.7200  -13.6720    7.8580 C.3       1 POP1        0.0000
     90 H15R      -11.0000  -13.2260    8.5800 H         1 POP1        0.0000
     91 H15S      -12.2360  -14.5150    8.3700 H         1 POP1        0.0000
     92 C216      -12.7590  -12.6120    7.4660 C.3       1 POP1        0.0000
     93 H16R      -13.4760  -13.0550    6.7400 H         1 POP1        0.0000
     94 H16S      -12.2430  -11.7660    6.9600 H         1 POP1        0.0000
     95 C217      -13.5370  -12.0750    8.6740 C.3       1 POP1        0.0000
     96 H17R      -12.8150  -11.6410    9.4020 H         1 POP1        0.0000
     97 H17S      -14.0470  -12.9280    9.1790 H         1 POP1        0.0000
     98 C218      -14.5770  -11.0150    8.3030 C.3       1 POP1        0.0000
     99 H18R      -15.3240  -11.4340    7.5950 H         1 POP1        0.0000
    100 H18S      -14.0870  -10.1420    7.8210 H         1 POP1        0.0000
    101 H18T      -15.1140  -10.6600    9.2100 H         1 POP1        0.0000
    102 C33        -1.5830   -9.0460   -3.2890 C.3       1 POP1        0.0000
    103 H3X        -0.9830   -8.4760   -4.0350 H         1 POP1        0.0000
    104 H3Y        -2.6070   -8.6030   -3.2760 H         1 POP1        0.0000
    105 C34        -1.6880  -10.5080   -3.7300 C.3       1 POP1        0.0000
    106 H4X        -2.3160  -11.0630   -2.9960 H         1 POP1        0.0000
    107 H4Y        -0.6730  -10.9660   -3.7230 H         1 POP1        0.0000
    108 C35        -2.2980  -10.6540   -5.1280 C.3       1 POP1        0.0000
    109 H5X        -1.6630  -10.1070   -5.8610 H         1 POP1        0.0000
    110 H5Y        -3.3070  -10.1850   -5.1370 H         1 POP1        0.0000
    111 C36        -2.4150  -12.1210   -5.5540 C.3       1 POP1        0.0000
    112 H6X        -3.0640  -12.6600   -4.8260 H         1 POP1        0.0000
    113 H6Y        -1.4060  -12.5900   -5.5190 H         1 POP1        0.0000
    114 C37        -2.9960  -12.2860   -6.9630 C.3       1 POP1        0.0000
    115 H7X        -2.3500  -11.7420   -7.6890 H         1 POP1        0.0000
    116 H7Y        -4.0090  -11.8270   -7.0000 H         1 POP1        0.0000
    117 C38        -3.0900  -13.7590   -7.3790 C.3       1 POP1        0.0000
    118 H8X        -3.7450  -14.3000   -6.6590 H         1 POP1        0.0000
    119 H8Y        -2.0760  -14.2160   -7.3220 H         1 POP1        0.0000
    120 C39        -3.6410  -13.9440   -8.7970 C.3       1 POP1        0.0000
    121 H9X        -2.9890  -13.3980   -9.5150 H         1 POP1        0.0000
    122 H9Y        -4.6590  -13.4980   -8.8560 H         1 POP1        0.0000
    123 C310       -3.7110  -15.4200   -9.2060 C.3       1 POP1        0.0000
    124 H10X       -4.3700  -15.9660   -8.4940 H         1 POP1        0.0000
    125 H10Y       -2.6930  -15.8660   -9.1330 H         1 POP1        0.0000
    126 C311       -4.2410  -15.6160  -10.6310 C.3       1 POP1        0.0000
    127 H11X       -3.5840  -15.0660  -11.3430 H         1 POP1        0.0000
    128 H11Y       -5.2620  -15.1790  -10.7060 H         1 POP1        0.0000
    129 C312       -4.2940  -17.0940  -11.0380 C.3       1 POP1        0.0000
    130 H12X       -4.9540  -17.6430  -10.3300 H         1 POP1        0.0000
    131 H12Y       -3.2730  -17.5300  -10.9560 H         1 POP1        0.0000
    132 C313       -4.8120  -17.2930  -12.4670 C.3       1 POP1        0.0000
    133 H13X       -4.1520  -16.7410  -13.1740 H         1 POP1        0.0000
    134 H13Y       -5.8340  -16.8600  -12.5490 H         1 POP1        0.0000
    135 C314       -4.8570  -18.7720  -12.8740 C.3       1 POP1        0.0000
    136 H14X       -5.5170  -19.3240  -12.1680 H         1 POP1        0.0000
    137 H14Y       -3.8350  -19.2050  -12.7900 H         1 POP1        0.0000
    138 C315       -5.3710  -18.9750  -14.3040 C.3       1 POP1        0.0000
    139 H15X       -4.7110  -18.4140  -15.0050 H         1 POP1        0.0000
    140 H15Y       -6.3920  -18.5360  -14.3840 H         1 POP1        0.0000
    141 C316       -5.4200  -20.4460  -14.7250 C.3       1 POP1        0.0000
    142 H16X       -6.0930  -21.0190  -14.0520 H         1 POP1        0.0000
    143 H16Y       -4.4060  -20.8970  -14.6750 H         1 POP1        0.0000
    144 H16Z       -5.7980  -20.5420  -15.7660 H         1 POP1        0.0000
@<TRIPOS>BOND
     1  144  141 1 
     2  139  138 1 
     3  141  143 1 
     4  141  138 1 
     5  141  142 1 
     6  140  138 1 
     7  138  135 1 
     8  133  132 1 
     9  135  137 1 
    10  135  132 1 
    11  135  136 1 
    12  134  132 1 
    13  132  129 1 
    14  127  126 1 
    15  129  131 1 
    16  129  126 1 
    17  129  130 1 
    18  128  126 1 
    19  126  123 1 
    20  121  120 1 
    21  123  125 1 
    22  123  120 1 
    23  123  124 1 
    24  122  120 1 
    25  120  117 1 
    26  115  114 1 
    27  117  119 1 
    28  117  114 1 
    29  117  118 1 
    30  116  114 1 
    31  114  111 1 
    32  109  108 1 
    33  111  113 1 
    34  111  108 1 
    35  111  112 1 
    36  110  108 1 
    37  108  105 1 
    38  103  102 1 
    39  105  107 1 
    40  105  102 1 
    41  105  106 1 
    42  102  104 1 
    43  102   52 1 
    44   12    8 2 
    45   51   50 2 
    46   54   52 1 
    47   52   50 1 
    48   52   53 1 
    49    9    8 1 
    50    9   10 1 
    51    8   11 1 
    52    8    7 1 
    53   50   49 1 
    54    6    5 1 
    55   29   28 1 
    56    2    1 1 
    57   48   46 1 
    58   49   46 1 
    59    7    5 1 
    60    5    1 1 
    61    5   13 1 
    62   33   28 1 
    63   33   30 1 
    64   28    1 1 
    65   28   24 1 
    66    1    3 1 
    67   39   38 1 
    68   18   17 1 
    69   46   38 1 
    70   46   47 1 
    71   15   13 1 
    72   15   16 1 
    73   42   41 2 
    74   34   30 1 
    75   34   35 1 
    76   13   17 1 
    77   13   14 1 
    78   26   24 1 
    79   26   27 1 
    80   38   35 1 
    81   38   40 1 
    82   24   17 1 
    83   24   25 1 
    84   17   19 1 
    85   30   32 2 
    86   30   31 1 
    87    3    4 1 
    88   21   20 2 
    89   56   55 1 
    90   41   40 1 
    91   41   43 1 
    92   22   20 1 
    93   35   36 1 
    94   35   37 1 
    95   57   55 1 
    96   62   61 1 
    97   20   19 1 
    98   20   23 1 
    99   55   43 1 
   100   55   58 1 
   101   63   61 1 
   102   43   45 1 
   103   43   44 1 
   104   68   67 1 
   105   61   58 1 
   106   61   64 1 
   107   69   67 1 
   108   58   60 1 
   109   58   59 1 
   110   74   73 1 
   111   67   64 1 
   112   67   70 1 
   113   64   66 1 
   114   64   65 1 
   115   73   70 1 
   116   73   75 2 
   117   76   75 1 
   118   70   72 1 
   119   70   71 1 
   120   75   77 1 
   121   81   80 1 
   122   82   80 1 
   123   80   77 1 
   124   80   83 1 
   125   87   86 1 
   126   88   86 1 
   127   77   79 1 
   128   77   78 1 
   129   86   83 1 
   130   86   89 1 
   131   93   92 1 
   132   94   92 1 
   133   83   85 1 
   134   83   84 1 
   135   92   89 1 
   136   92   95 1 
   137   99   98 1 
   138  100   98 1 
   139   89   91 1 
   140   89   90 1 
   141   98   95 1 
   142   98  101 1 
   143   95   97 1 
   144   95   96 1 
