@<TRIPOS>MOLECULE
C:\Users\Praveer\PycharmProjects\pdb_to_mol2_converter\data\pdb\popi33.pdb
  147   147     0     0     0
SMALL
GASTEIGER

@<TRIPOS>ATOM
      1 C12         1.7260    0.2470    0.5400 C.3       1 POP1        0.0000
      2 H2          2.3140   -0.5720    0.0610 H         1 POP1        0.0000
      3 O2          1.9210    0.1320    1.9460 O.3       1 POP1        0.0000
      4 HO2         1.5100    0.9450    2.2720 H         1 POP1        0.0000
      5 C13         2.2540    1.5640    0.0110 C.3       1 POP1        0.0000
      6 H3          1.9590    1.6280   -1.0720 H         1 POP1        0.0000
      7 O3          3.6860    1.5290    0.1650 O.3       1 POP1        0.0000
      8 P3          4.6330    1.1040   -1.1120 P.3       1 POP1        0.0000
      9 OP32        4.9210    2.4960   -1.8140 O.3       1 POP1        0.0000
     10 HP32        4.5520    3.2110   -1.2340 H         1 POP1        0.0000
     11 OP33        5.9600    0.5430   -0.6020 O.3       1 POP1        0.0000
     12 OP34        3.8700    0.2050   -2.0840 O.2       1 POP1        0.0000
     13 C14         1.5350    2.7710    0.6740 C.3       1 POP1        0.0000
     14 H4          2.1220    3.0570    1.5750 H         1 POP1        0.0000
     15 O4          1.5400    3.8840   -0.2410 O.3       1 POP1        0.0000
     16 P4          2.7540    4.9960   -0.5360 P.3       1 POP1        0.0000
     17 OP42        2.4490    6.2700    0.2510 O.3       1 POP1        0.0000
     18 OP43        2.6920    5.2540   -2.0410 O.2       1 POP1        0.0000
     19 OP44        4.0990    4.4030   -0.1360 O.3       1 POP1        0.0000
     20 C15         0.0560    2.4500    1.1950 C.3       1 POP1        0.0000
     21 H5         -0.5700    3.1060    0.5410 H         1 POP1        0.0000
     22 O5         -0.1920    2.8700    2.5560 O.3       1 POP1        0.0000
     23 P5         -1.7110    3.2760    3.1540 P.3       1 POP1        0.0000
     24 OP52       -2.1570    4.5780    2.4980 O.2       1 POP1        0.0000
     25 OP53       -2.6570    2.1280    2.8080 O.3       1 POP1        0.0000
     26 OP54       -1.5430    3.4280    4.6660 O.3       1 POP1        0.0000
     27 C16        -0.5390    1.0160    0.9720 C.3       1 POP1        0.0000
     28 H6         -0.5580    0.5450    1.9900 H         1 POP1        0.0000
     29 O6         -1.9050    1.0650    0.5810 O.3       1 POP1        0.0000
     30 HO6        -2.3120    1.4740    1.3900 H         1 POP1        0.0000
     31 C11         0.2850    0.0570    0.1300 C.3       1 POP1        0.0000
     32 H1          0.1960    0.4250   -0.9230 H         1 POP1        0.0000
     33 P          -0.0740   -2.4670    1.2720 P.3       1 POP1        0.0000
     34 O13        -0.2880   -1.9820    2.6520 O.3       1 POP1        0.0000
     35 O14         1.0720   -3.3830    1.0380 O.2       1 POP1        0.0000
     36 O12        -0.1530   -1.3120    0.1070 O.3       1 POP1        0.0000
     37 O11        -1.3740   -3.3370    0.9300 O.3       1 POP1        0.0000
     38 C1         -1.7850   -4.3600    1.8500 C.3       1 POP1        0.0000
     39 HA         -2.7940   -4.1220    2.2580 H         1 POP1        0.0000
     40 HB         -1.0990   -4.4580    2.7280 H         1 POP1        0.0000
     41 C2         -1.8410   -5.7380    1.1400 C.3       1 POP1        0.0000
     42 HS         -2.6590   -5.6770    0.3810 H         1 POP1        0.0000
     43 O21        -2.0950   -6.7440    2.1480 O.3       1 POP1        0.0000
     44 C21        -2.7490   -7.8150    1.7350 C.2       1 POP1        0.0000
     45 O22        -3.2480   -7.9790    0.6380 O.2       1 POP1        0.0000
     46 C22        -2.7880   -8.8450    2.8720 C.3       1 POP1        0.0000
     47 H2R        -3.2760   -8.3670    3.7450 H         1 POP1        0.0000
     48 H2S        -1.7400   -9.0900    3.1420 H         1 POP1        0.0000
     49 C3         -0.5040   -6.0360    0.3880 C.3       1 POP1        0.0000
     50 HX          0.3200   -5.9690    1.1350 H         1 POP1        0.0000
     51 HY         -0.3090   -5.2250   -0.3540 H         1 POP1        0.0000
     52 O31        -0.4760   -7.3530   -0.2120 O.3       1 POP1        0.0000
     53 C31        -1.0560   -7.4250   -1.4040 C.2       1 POP1        0.0000
     54 O32        -1.5260   -6.5010   -2.0360 O.2       1 POP1        0.0000
     55 C32        -1.0320   -8.8800   -1.8680 C.3       1 POP1        0.0000
     56 H2X        -1.6290   -9.4700   -1.1420 H         1 POP1        0.0000
     57 H2Y         0.0180   -9.2350   -1.8470 H         1 POP1        0.0000
     58 C23        -3.5480  -10.1340    2.4750 C.3       1 POP1        0.0000
     59 H3R        -3.0340  -10.6150    1.6120 H         1 POP1        0.0000
     60 H3S        -4.5790   -9.8700    2.1440 H         1 POP1        0.0000
     61 C24        -3.6560  -11.1590    3.6170 C.3       1 POP1        0.0000
     62 H4R        -4.1720  -10.6890    4.4840 H         1 POP1        0.0000
     63 H4S        -2.6350  -11.4520    3.9480 H         1 POP1        0.0000
     64 C25        -4.4310  -12.4230    3.2040 C.3       1 POP1        0.0000
     65 H5R        -3.9150  -12.8970    2.3390 H         1 POP1        0.0000
     66 H5S        -5.4500  -12.1290    2.8680 H         1 POP1        0.0000
     67 C26        -4.5590  -13.4570    4.3350 C.3       1 POP1        0.0000
     68 H6R        -5.0880  -12.9920    5.1970 H         1 POP1        0.0000
     69 H6S        -3.5410  -13.7490    4.6780 H         1 POP1        0.0000
     70 C27        -5.3240  -14.7200    3.9010 C.3       1 POP1        0.0000
     71 H7R        -4.8040  -15.1650    3.0220 H         1 POP1        0.0000
     72 H7S        -6.3460  -14.4200    3.5750 H         1 POP1        0.0000
     73 C28        -5.4360  -15.7750    5.0210 C.3       1 POP1        0.0000
     74 H8R        -5.9070  -15.2900    5.9040 H         1 POP1        0.0000
     75 H8S        -4.4090  -16.0740    5.3270 H         1 POP1        0.0000
     76 C29        -6.2080  -16.9910    4.5640 C.2       1 POP1        0.0000
     77 H91        -5.7720  -17.5100    3.6960 H         1 POP1        0.0000
     78 C210       -7.3550  -17.4690    5.0870 C.2       1 POP1        0.0000
     79 H101       -7.8130  -18.3610    4.6320 H         1 POP1        0.0000
     80 C211       -8.1080  -16.9070    6.2680 C.3       1 POP1        0.0000
     81 H11R       -7.4150  -16.4470    7.0080 H         1 POP1        0.0000
     82 H11S       -8.6370  -17.7270    6.8030 H         1 POP1        0.0000
     83 C212       -9.1430  -15.8480    5.8500 C.3       1 POP1        0.0000
     84 H12R       -9.8730  -16.2950    5.1380 H         1 POP1        0.0000
     85 H12S       -8.6260  -15.0110    5.3270 H         1 POP1        0.0000
     86 C213       -9.9110  -15.2790    7.0520 C.3       1 POP1        0.0000
     87 H13R       -9.1850  -14.8260    7.7650 H         1 POP1        0.0000
     88 H13S      -10.4290  -16.1110    7.5790 H         1 POP1        0.0000
     89 C214      -10.9460  -14.2190    6.6510 C.3       1 POP1        0.0000
     90 H14R      -11.6650  -14.6660    5.9290 H         1 POP1        0.0000
     91 H14S      -10.4280  -13.3780    6.1370 H         1 POP1        0.0000
     92 C215      -11.7200  -13.6720    7.8580 C.3       1 POP1        0.0000
     93 H15R      -11.0000  -13.2270    8.5810 H         1 POP1        0.0000
     94 H15S      -12.2360  -14.5150    8.3700 H         1 POP1        0.0000
     95 C216      -12.7590  -12.6130    7.4670 C.3       1 POP1        0.0000
     96 H16R      -13.4760  -13.0550    6.7400 H         1 POP1        0.0000
     97 H16S      -12.2430  -11.7660    6.9600 H         1 POP1        0.0000
     98 C217      -13.5370  -12.0760    8.6750 C.3       1 POP1        0.0000
     99 H17R      -12.8140  -11.6420    9.4030 H         1 POP1        0.0000
    100 H17S      -14.0470  -12.9280    9.1790 H         1 POP1        0.0000
    101 C218      -14.5770  -11.0150    8.3040 C.3       1 POP1        0.0000
    102 H18R      -15.3230  -11.4340    7.5940 H         1 POP1        0.0000
    103 H18S      -14.0870  -10.1430    7.8210 H         1 POP1        0.0000
    104 H18T      -15.1140  -10.6600    9.2100 H         1 POP1        0.0000
    105 C33        -1.6250   -9.0390   -3.2830 C.3       1 POP1        0.0000
    106 H3X        -1.0120   -8.4670   -4.0160 H         1 POP1        0.0000
    107 H3Y        -2.6560   -8.6140   -3.3070 H         1 POP1        0.0000
    108 C34        -1.6930  -10.5060   -3.7190 C.3       1 POP1        0.0000
    109 H4X        -2.3160  -11.0720   -2.9910 H         1 POP1        0.0000
    110 H4Y        -0.6700  -10.9440   -3.7030 H         1 POP1        0.0000
    111 C35        -2.2910  -10.6660   -5.1220 C.3       1 POP1        0.0000
    112 H5X        -1.6540  -10.1200   -5.8530 H         1 POP1        0.0000
    113 H5Y        -3.3020  -10.2010   -5.1410 H         1 POP1        0.0000
    114 C36        -2.4060  -12.1350   -5.5470 C.3       1 POP1        0.0000
    115 H6X        -3.0540  -12.6740   -4.8190 H         1 POP1        0.0000
    116 H6Y        -1.3970  -12.6030   -5.5140 H         1 POP1        0.0000
    117 C37        -2.9890  -12.2960   -6.9570 C.3       1 POP1        0.0000
    118 H7X        -2.3440  -11.7490   -7.6810 H         1 POP1        0.0000
    119 H7Y        -4.0010  -11.8330   -6.9890 H         1 POP1        0.0000
    120 C38        -3.0900  -13.7670   -7.3810 C.3       1 POP1        0.0000
    121 H8X        -3.7460  -14.3080   -6.6630 H         1 POP1        0.0000
    122 H8Y        -2.0770  -14.2270   -7.3260 H         1 POP1        0.0000
    123 C39        -3.6430  -13.9460   -8.8000 C.3       1 POP1        0.0000
    124 H9X        -2.9910  -13.3980   -9.5180 H         1 POP1        0.0000
    125 H9Y        -4.6600  -13.4990   -8.8580 H         1 POP1        0.0000
    126 C310       -3.7140  -15.4220   -9.2120 C.3       1 POP1        0.0000
    127 H10X       -4.3730  -15.9680   -8.5010 H         1 POP1        0.0000
    128 H10Y       -2.6960  -15.8680   -9.1400 H         1 POP1        0.0000
    129 C311       -4.2430  -15.6190  -10.6380 C.3       1 POP1        0.0000
    130 H11X       -3.5870  -15.0700  -11.3510 H         1 POP1        0.0000
    131 H11Y       -5.2650  -15.1830  -10.7140 H         1 POP1        0.0000
    132 C312       -4.2960  -17.0980  -11.0440 C.3       1 POP1        0.0000
    133 H12X       -4.9560  -17.6470  -10.3360 H         1 POP1        0.0000
    134 H12Y       -3.2750  -17.5340  -10.9620 H         1 POP1        0.0000
    135 C313       -4.8140  -17.2990  -12.4740 C.3       1 POP1        0.0000
    136 H13X       -4.1550  -16.7470  -13.1810 H         1 POP1        0.0000
    137 H13Y       -5.8360  -16.8660  -12.5560 H         1 POP1        0.0000
    138 C314       -4.8590  -18.7780  -12.8800 C.3       1 POP1        0.0000
    139 H14X       -5.5180  -19.3300  -12.1740 H         1 POP1        0.0000
    140 H14Y       -3.8370  -19.2100  -12.7960 H         1 POP1        0.0000
    141 C315       -5.3730  -18.9810  -14.3100 C.3       1 POP1        0.0000
    142 H15X       -4.7130  -18.4200  -15.0110 H         1 POP1        0.0000
    143 H15Y       -6.3940  -18.5410  -14.3900 H         1 POP1        0.0000
    144 C316       -5.4220  -20.4510  -14.7310 C.3       1 POP1        0.0000
    145 H16X       -6.0940  -21.0250  -14.0570 H         1 POP1        0.0000
    146 H16Y       -4.4080  -20.9030  -14.6810 H         1 POP1        0.0000
    147 H16Z       -5.8000  -20.5480  -15.7710 H         1 POP1        0.0000
@<TRIPOS>BOND
     1  147  144 1 
     2  142  141 1 
     3  144  146 1 
     4  144  141 1 
     5  144  145 1 
     6  143  141 1 
     7  141  138 1 
     8  136  135 1 
     9  138  140 1 
    10  138  135 1 
    11  138  139 1 
    12  137  135 1 
    13  135  132 1 
    14  130  129 1 
    15  132  134 1 
    16  132  129 1 
    17  132  133 1 
    18  131  129 1 
    19  129  126 1 
    20  124  123 1 
    21  126  128 1 
    22  126  123 1 
    23  126  127 1 
    24  125  123 1 
    25  123  120 1 
    26  118  117 1 
    27  120  122 1 
    28  120  117 1 
    29  120  121 1 
    30  119  117 1 
    31  117  114 1 
    32  112  111 1 
    33  114  116 1 
    34  114  111 1 
    35  114  115 1 
    36  113  111 1 
    37  111  108 1 
    38  106  105 1 
    39  108  110 1 
    40  108  105 1 
    41  108  109 1 
    42  107  105 1 
    43  105   55 1 
    44   12    8 2 
    45   18   16 2 
    46   54   53 2 
    47   55   57 1 
    48   55   53 1 
    49   55   56 1 
    50    9   10 1 
    51    9    8 1 
    52   53   52 1 
    53    8   11 1 
    54    8    7 1 
    55    6    5 1 
    56   32   31 1 
    57   16   15 1 
    58   16   19 1 
    59   16   17 1 
    60   51   49 1 
    61   15   13 1 
    62   52   49 1 
    63    5    7 1 
    64    5    1 1 
    65    5   13 1 
    66    2    1 1 
    67   36   31 1 
    68   36   33 1 
    69   31    1 1 
    70   31   27 1 
    71   42   41 1 
    72   49   50 1 
    73   49   41 1 
    74    1    3 1 
    75   21   20 1 
    76   29   27 1 
    77   29   30 1 
    78   45   44 2 
    79   13   20 1 
    80   13   14 1 
    81   37   33 1 
    82   37   38 1 
    83   27   20 1 
    84   27   28 1 
    85   35   33 2 
    86   41   38 1 
    87   41   43 1 
    88   20   22 1 
    89   33   34 1 
    90   59   58 1 
    91   44   43 1 
    92   44   46 1 
    93   38   39 1 
    94   38   40 1 
    95    3    4 1 
    96   60   58 1 
    97   65   64 1 
    98   58   46 1 
    99   58   61 1 
   100   24   23 2 
   101   22   23 1 
   102   25   23 1 
   103   66   64 1 
   104   46   48 1 
   105   46   47 1 
   106   71   70 1 
   107   23   26 1 
   108   64   61 1 
   109   64   67 1 
   110   72   70 1 
   111   61   63 1 
   112   61   62 1 
   113   77   76 1 
   114   70   67 1 
   115   70   73 1 
   116   67   69 1 
   117   67   68 1 
   118   76   73 1 
   119   76   78 2 
   120   79   78 1 
   121   73   75 1 
   122   73   74 1 
   123   78   80 1 
   124   84   83 1 
   125   85   83 1 
   126   83   80 1 
   127   83   86 1 
   128   90   89 1 
   129   91   89 1 
   130   80   82 1 
   131   80   81 1 
   132   89   86 1 
   133   89   92 1 
   134   96   95 1 
   135   97   95 1 
   136   86   88 1 
   137   86   87 1 
   138   95   92 1 
   139   95   98 1 
   140  102  101 1 
   141  103  101 1 
   142   92   94 1 
   143   92   93 1 
   144  101   98 1 
   145  101  104 1 
   146   98  100 1 
   147   98   99 1 
