@<TRIPOS>MOLECULE
C:\Users\Praveer\PycharmProjects\pdb_to_mol2_converter\data\pdb\popi34.pdb
  147   147     0     0     0
SMALL
GASTEIGER

@<TRIPOS>ATOM
      1 C12         1.9070    0.2070    0.4090 C.3       1 POP1        0.0000
      2 H2          2.3530   -0.4640   -0.3680 H         1 POP1        0.0000
      3 O2          2.3990   -0.2440    1.6610 O.3       1 POP1        0.0000
      4 HO2         3.3620   -0.3350    1.4650 H         1 POP1        0.0000
      5 C13         2.3900    1.6340    0.1380 C.3       1 POP1        0.0000
      6 H3          2.1190    1.8030   -0.9330 H         1 POP1        0.0000
      7 O3          3.8160    1.8130    0.2410 O.3       1 POP1        0.0000
      8 P3          4.9640    0.7540   -0.2950 P.3       1 POP1        0.0000
      9 OP32        6.2930    1.5030   -0.2440 O.3       1 POP1        0.0000
     10 OP33        4.5690    0.3590   -1.7120 O.2       1 POP1        0.0000
     11 OP34        4.9150   -0.4120    0.6920 O.3       1 POP1        0.0000
     12 C14         1.6380    2.7200    0.9530 C.3       1 POP1        0.0000
     13 H4          2.1230    2.6150    1.9600 H         1 POP1        0.0000
     14 O4          1.8680    4.0810    0.5780 O.3       1 POP1        0.0000
     15 P4          2.1690    4.7270   -0.8860 P.3       1 POP1        0.0000
     16 OP42        3.6940    4.3160   -1.0910 O.3       1 POP1        0.0000
     17 HP42        3.8080    3.3940   -0.7900 H         1 POP1        0.0000
     18 OP43        1.3330    4.1010   -1.9930 O.2       1 POP1        0.0000
     19 OP44        2.1320    6.2540   -0.7990 O.3       1 POP1        0.0000
     20 C15         0.1300    2.4820    1.2950 C.3       1 POP1        0.0000
     21 H5         -0.3870    3.1020    0.5150 H         1 POP1        0.0000
     22 O5         -0.2410    3.0100    2.5860 O.3       1 POP1        0.0000
     23 P5         -1.7480    3.5710    3.0230 P.3       1 POP1        0.0000
     24 OP52       -1.9610    4.9300    2.3620 O.2       1 POP1        0.0000
     25 OP53       -2.7700    2.5410    2.5490 O.3       1 POP1        0.0000
     26 OP54       -1.7210    3.6790    4.5480 O.3       1 POP1        0.0000
     27 C16        -0.4250    1.0480    1.1000 C.3       1 POP1        0.0000
     28 H6         -0.4410    0.6090    2.1320 H         1 POP1        0.0000
     29 O6         -1.7820    1.0990    0.6670 O.3       1 POP1        0.0000
     30 HO6        -2.2190    1.6580    1.3650 H         1 POP1        0.0000
     31 C11         0.3940    0.0460    0.2820 C.3       1 POP1        0.0000
     32 H1          0.2190    0.3960   -0.7690 H         1 POP1        0.0000
     33 P          -0.1610   -2.4090    1.5080 P.3       1 POP1        0.0000
     34 O13        -0.5390   -1.8480    2.8240 O.3       1 POP1        0.0000
     35 O14         0.9570   -3.3860    1.4810 O.2       1 POP1        0.0000
     36 O12        -0.0610   -1.3220    0.2720 O.3       1 POP1        0.0000
     37 O11        -1.4300   -3.2860    1.0640 O.3       1 POP1        0.0000
     38 C1         -1.9230   -4.3030    1.9520 C.3       1 POP1        0.0000
     39 HA         -2.9570   -4.0440    2.2690 H         1 POP1        0.0000
     40 HB         -1.3150   -4.3990    2.8850 H         1 POP1        0.0000
     41 C2         -1.9420   -5.6930    1.2610 C.3       1 POP1        0.0000
     42 HS         -2.7430   -5.6570    0.4850 H         1 POP1        0.0000
     43 O21        -2.2030   -6.6910    2.2750 O.3       1 POP1        0.0000
     44 C21        -2.8000   -7.7960    1.8620 C.2       1 POP1        0.0000
     45 O22        -3.2660   -7.9990    0.7610 O.2       1 POP1        0.0000
     46 C22        -2.8160   -8.8090    3.0190 C.3       1 POP1        0.0000
     47 H2R        -3.2940   -8.3160    3.8890 H         1 POP1        0.0000
     48 H2S        -1.7610   -9.0370    3.2750 H         1 POP1        0.0000
     49 C3         -0.5850   -5.9790    0.5430 C.3       1 POP1        0.0000
     50 HX          0.2160   -5.8810    1.3100 H         1 POP1        0.0000
     51 HY         -0.3910   -5.1740   -0.2050 H         1 POP1        0.0000
     52 O31        -0.5170   -7.3040   -0.0380 O.3       1 POP1        0.0000
     53 C31        -1.0720   -7.4130   -1.2410 C.2       1 POP1        0.0000
     54 O32        -1.5590   -6.5150   -1.8950 O.2       1 POP1        0.0000
     55 C32        -0.9960   -8.8780   -1.6810 C.3       1 POP1        0.0000
     56 H2X        -1.5520   -9.4760   -0.9300 H         1 POP1        0.0000
     57 H2Y         0.0680   -9.1870   -1.6720 H         1 POP1        0.0000
     58 C23        -3.5700  -10.1180    2.6670 C.3       1 POP1        0.0000
     59 H3R        -3.0540  -10.6230    1.8180 H         1 POP1        0.0000
     60 H3S        -4.6020   -9.8690    2.3290 H         1 POP1        0.0000
     61 C24        -3.6710  -11.1070    3.8440 C.3       1 POP1        0.0000
     62 H4R        -4.1820  -10.6070    4.6970 H         1 POP1        0.0000
     63 H4S        -2.6470  -11.3840    4.1790 H         1 POP1        0.0000
     64 C25        -4.4450  -12.3890    3.4840 C.3       1 POP1        0.0000
     65 H5R        -3.9370  -12.8880    2.6290 H         1 POP1        0.0000
     66 H5S        -5.4690  -12.1100    3.1490 H         1 POP1        0.0000
     67 C26        -4.5620  -13.3950    4.6450 C.3       1 POP1        0.0000
     68 H6R        -5.0880  -12.9110    5.4980 H         1 POP1        0.0000
     69 H6S        -3.5420  -13.6750    4.9900 H         1 POP1        0.0000
     70 C27        -5.3250  -14.6720    4.2460 C.3       1 POP1        0.0000
     71 H7R        -4.8100  -15.1330    3.3730 H         1 POP1        0.0000
     72 H7S        -6.3500  -14.3810    3.9210 H         1 POP1        0.0000
     73 C28        -5.4300  -15.7090    5.3840 C.3       1 POP1        0.0000
     74 H8R        -5.8880  -15.2080    6.2660 H         1 POP1        0.0000
     75 H8S        -4.4020  -16.0120    5.6830 H         1 POP1        0.0000
     76 C29        -6.2170  -16.9250    4.9520 C.2       1 POP1        0.0000
     77 H91        -5.7860  -17.4680    4.0970 H         1 POP1        0.0000
     78 C210       -7.3720  -17.3770    5.4810 C.2       1 POP1        0.0000
     79 H101       -7.8400  -18.2720    5.0420 H         1 POP1        0.0000
     80 C211       -8.1240  -16.7830    6.6460 C.3       1 POP1        0.0000
     81 H11R       -7.4300  -16.3120    7.3780 H         1 POP1        0.0000
     82 H11S       -8.6620  -17.5870    7.1980 H         1 POP1        0.0000
     83 C212       -9.1500  -15.7250    6.2020 C.3       1 POP1        0.0000
     84 H12R       -9.8820  -16.1820    5.4980 H         1 POP1        0.0000
     85 H12S       -8.6250  -14.9050    5.6610 H         1 POP1        0.0000
     86 C213       -9.9150  -15.1230    7.3880 C.3       1 POP1        0.0000
     87 H13R       -9.1880  -14.6540    8.0900 H         1 POP1        0.0000
     88 H13S      -10.4360  -15.9390    7.9370 H         1 POP1        0.0000
     89 C214      -10.9480  -14.0710    6.9610 C.3       1 POP1        0.0000
     90 H14R      -11.6680  -14.5340    6.2500 H         1 POP1        0.0000
     91 H14S      -10.4280  -13.2440    6.4270 H         1 POP1        0.0000
     92 C215      -11.7220  -13.4950    8.1550 C.3       1 POP1        0.0000
     93 H15R      -11.0010  -13.0330    8.8670 H         1 POP1        0.0000
     94 H15S      -12.2370  -14.3250    8.6870 H         1 POP1        0.0000
     95 C216      -12.7610  -12.4450    7.7400 C.3       1 POP1        0.0000
     96 H16R      -13.4790  -12.9050    7.0240 H         1 POP1        0.0000
     97 H16S      -12.2460  -11.6100    7.2130 H         1 POP1        0.0000
     98 C217      -13.5380  -11.8810    8.9360 C.3       1 POP1        0.0000
     99 H17R      -12.8150  -11.4300    9.6530 H         1 POP1        0.0000
    100 H17S      -14.0470  -12.7210    9.4600 H         1 POP1        0.0000
    101 C218      -14.5780  -10.8290    8.5410 C.3       1 POP1        0.0000
    102 H18R      -15.3250  -11.2650    7.8420 H         1 POP1        0.0000
    103 H18S      -14.0880   -9.9680    8.0380 H         1 POP1        0.0000
    104 H18T      -15.1150  -10.4540    9.4390 H         1 POP1        0.0000
    105 C33        -1.6110   -9.0990   -3.0820 C.3       1 POP1        0.0000
    106 H3X        -1.0200   -8.5380   -3.8420 H         1 POP1        0.0000
    107 H3Y        -2.6480   -8.6890   -3.0980 H         1 POP1        0.0000
    108 C34        -1.6710  -10.5800   -3.4800 C.3       1 POP1        0.0000
    109 H4X        -2.2840  -11.1310   -2.7320 H         1 POP1        0.0000
    110 H4Y        -0.6440  -11.0100   -3.4600 H         1 POP1        0.0000
    111 C35        -2.2780  -10.7850   -4.8760 C.3       1 POP1        0.0000
    112 H5X        -1.6470  -10.2570   -5.6250 H         1 POP1        0.0000
    113 H5Y        -3.2900  -10.3210   -4.9010 H         1 POP1        0.0000
    114 C36        -2.3980  -12.2630   -5.2730 C.3       1 POP1        0.0000
    115 H6X        -3.0460  -12.7870   -4.5340 H         1 POP1        0.0000
    116 H6Y        -1.3900  -12.7340   -5.2320 H         1 POP1        0.0000
    117 C37        -2.9840  -12.4540   -6.6800 C.3       1 POP1        0.0000
    118 H7X        -2.3400  -11.9230   -7.4160 H         1 POP1        0.0000
    119 H7Y        -3.9960  -11.9920   -6.7200 H         1 POP1        0.0000
    120 C38        -3.0890  -13.9330   -7.0800 C.3       1 POP1        0.0000
    121 H8X        -3.7460  -14.4610   -6.3530 H         1 POP1        0.0000
    122 H8Y        -2.0780  -14.3950   -7.0190 H         1 POP1        0.0000
    123 C39        -3.6440  -14.1400   -8.4980 C.3       1 POP1        0.0000
    124 H9X        -2.9920  -13.6080   -9.2260 H         1 POP1        0.0000
    125 H9Y        -4.6610  -13.6940   -8.5640 H         1 POP1        0.0000
    126 C310       -3.7170  -15.6250   -8.8830 C.3       1 POP1        0.0000
    127 H10X       -4.3760  -16.1570   -8.1600 H         1 POP1        0.0000
    128 H10Y       -2.6990  -16.0700   -8.8030 H         1 POP1        0.0000
    129 C311       -4.2480  -15.8540  -10.3050 C.3       1 POP1        0.0000
    130 H11X       -3.5920  -15.3200  -11.0300 H         1 POP1        0.0000
    131 H11Y       -5.2690  -15.4200  -10.3890 H         1 POP1        0.0000
    132 C312       -4.3010  -17.3410  -10.6790 C.3       1 POP1        0.0000
    133 H12X       -4.9600  -17.8760   -9.9590 H         1 POP1        0.0000
    134 H12Y       -3.2800  -17.7760  -10.5890 H         1 POP1        0.0000
    135 C313       -4.8190  -17.5760  -12.1040 C.3       1 POP1        0.0000
    136 H13X       -4.1600  -17.0400  -12.8240 H         1 POP1        0.0000
    137 H13Y       -5.8420  -17.1460  -12.1960 H         1 POP1        0.0000
    138 C314       -4.8640  -19.0630  -12.4770 C.3       1 POP1        0.0000
    139 H14X       -5.5240  -19.6010  -11.7600 H         1 POP1        0.0000
    140 H14Y       -3.8420  -19.4940  -12.3840 H         1 POP1        0.0000
    141 C315       -5.3770  -19.2990  -13.9030 C.3       1 POP1        0.0000
    142 H15X       -4.7170  -18.7550  -14.6160 H         1 POP1        0.0000
    143 H15Y       -6.3980  -18.8620  -13.9940 H         1 POP1        0.0000
    144 C316       -5.4260  -20.7790  -14.2910 C.3       1 POP1        0.0000
    145 H16X       -6.0990  -21.3380  -13.6050 H         1 POP1        0.0000
    146 H16Y       -4.4120  -21.2300  -14.2300 H         1 POP1        0.0000
    147 H16Z       -5.8030  -20.8990  -15.3290 H         1 POP1        0.0000
@<TRIPOS>BOND
     1  147  144 1 
     2  142  141 1 
     3  144  146 1 
     4  144  141 1 
     5  144  145 1 
     6  143  141 1 
     7  141  138 1 
     8  136  135 1 
     9  138  140 1 
    10  138  135 1 
    11  138  139 1 
    12  137  135 1 
    13  135  132 1 
    14  130  129 1 
    15  132  134 1 
    16  132  129 1 
    17  132  133 1 
    18  131  129 1 
    19  129  126 1 
    20  124  123 1 
    21  126  128 1 
    22  126  123 1 
    23  126  127 1 
    24  125  123 1 
    25  123  120 1 
    26  118  117 1 
    27  120  122 1 
    28  120  117 1 
    29  120  121 1 
    30  119  117 1 
    31  117  114 1 
    32  112  111 1 
    33  114  116 1 
    34  114  111 1 
    35  114  115 1 
    36  113  111 1 
    37  111  108 1 
    38  106  105 1 
    39  108  110 1 
    40  108  105 1 
    41  108  109 1 
    42  107  105 1 
    43  105   55 1 
    44   18   15 2 
    45   54   53 2 
    46   10    8 2 
    47   55   57 1 
    48   55   53 1 
    49   55   56 1 
    50   53   52 1 
    51   16   15 1 
    52   16   17 1 
    53    6    5 1 
    54   15   19 1 
    55   15   14 1 
    56   32   31 1 
    57    2    1 1 
    58    8    9 1 
    59    8    7 1 
    60    8   11 1 
    61   51   49 1 
    62   52   49 1 
    63    5    7 1 
    64    5    1 1 
    65    5   12 1 
    66   36   31 1 
    67   36   33 1 
    68   31    1 1 
    69   31   27 1 
    70    1    3 1 
    71   42   41 1 
    72   21   20 1 
    73   49   41 1 
    74   49   50 1 
    75   14   12 1 
    76   29   27 1 
    77   29   30 1 
    78   45   44 2 
    79   12   20 1 
    80   12   13 1 
    81   37   33 1 
    82   37   38 1 
    83   27   20 1 
    84   27   28 1 
    85   41   38 1 
    86   41   43 1 
    87   20   22 1 
    88    4    3 1 
    89   35   33 2 
    90   33   34 1 
    91   59   58 1 
    92   44   43 1 
    93   44   46 1 
    94   38   39 1 
    95   38   40 1 
    96   60   58 1 
    97   24   23 2 
    98   25   23 1 
    99   22   23 1 
   100   65   64 1 
   101   58   46 1 
   102   58   61 1 
   103   46   48 1 
   104   46   47 1 
   105   23   26 1 
   106   66   64 1 
   107   71   70 1 
   108   64   61 1 
   109   64   67 1 
   110   61   63 1 
   111   61   62 1 
   112   72   70 1 
   113   77   76 1 
   114   70   67 1 
   115   70   73 1 
   116   67   69 1 
   117   67   68 1 
   118   76   73 1 
   119   76   78 2 
   120   79   78 1 
   121   73   75 1 
   122   73   74 1 
   123   78   80 1 
   124   84   83 1 
   125   85   83 1 
   126   83   80 1 
   127   83   86 1 
   128   90   89 1 
   129   91   89 1 
   130   80   82 1 
   131   80   81 1 
   132   89   86 1 
   133   89   92 1 
   134   96   95 1 
   135   97   95 1 
   136   86   88 1 
   137   86   87 1 
   138   95   92 1 
   139   95   98 1 
   140  102  101 1 
   141  103  101 1 
   142   92   94 1 
   143   92   93 1 
   144  101   98 1 
   145  101  104 1 
   146   98  100 1 
   147   98   99 1 
