@<TRIPOS>MOLECULE
C:\Users\Praveer\PycharmProjects\pdb_to_mol2_converter\data\pdb\pops.pdb
  127   126     0     0     0
SMALL
GASTEIGER

@<TRIPOS>ATOM
      1 N          -0.0270   -0.0100    0.0110 N.4       1 POP1        0.0000
      2 HN1        -0.3770   -0.4620    0.8870 H         1 POP1        0.0000
      3 HN2        -0.2810   -0.5460   -0.8530 H         1 POP1        0.0000
      4 HN3        -0.3620    0.9920   -0.0470 H         1 POP1        0.0000
      5 C12         1.4630   -0.0060   -0.0140 C.3       1 POP1        0.0000
      6 H12A        1.8180   -0.5300    0.8590 H         1 POP1        0.0000
      7 C13         1.9610   -0.7890   -1.2430 C.2       1 POP1        0.0000
      8 O13A        1.1000   -1.2900   -2.0210 O.co2     1 POP1        0.0000
      9 O13B        3.2010   -0.9190   -1.3910 O.co2     1 POP1        0.0000
     10 C11         2.0060    1.4580   -0.0080 C.3       1 POP1        0.0000
     11 H11A        1.7240    1.9670   -0.9610 H         1 POP1        0.0000
     12 H11B        3.1190    1.3990   -0.0070 H         1 POP1        0.0000
     13 P           0.3560    3.1830    1.0980 P.3       1 POP1        0.0000
     14 O13         0.8390    4.5500    0.8370 O.3       1 POP1        0.0000
     15 O14        -0.6210    2.5740    0.1640 O.2       1 POP1        0.0000
     16 O12         1.5880    2.1820    1.1620 O.3       1 POP1        0.0000
     17 O11        -0.2380    3.0750    2.5540 O.3       1 POP1        0.0000
     18 C1          0.5410    2.9150    3.7350 C.3       1 POP1        0.0000
     19 HA          0.2320    3.7110    4.4490 H         1 POP1        0.0000
     20 HB          1.6370    3.0340    3.5700 H         1 POP1        0.0000
     21 C2          0.2390    1.5430    4.3900 C.3       1 POP1        0.0000
     22 HS         -0.7970    1.2750    4.0680 H         1 POP1        0.0000
     23 O21         0.3260    1.6870    5.8210 O.3       1 POP1        0.0000
     24 C21        -0.4340    0.8490    6.5100 C.2       1 POP1        0.0000
     25 O22        -1.2470    0.0690    6.0490 O.2       1 POP1        0.0000
     26 C22        -0.1180    1.0120    7.9970 C.3       1 POP1        0.0000
     27 H2R        -0.2910    2.0720    8.2740 H         1 POP1        0.0000
     28 H2S         0.9570    0.7780    8.1400 H         1 POP1        0.0000
     29 C3          1.2210    0.4420    3.8920 C.3       1 POP1        0.0000
     30 HX          2.2260    0.6870    4.3040 H         1 POP1        0.0000
     31 HY          1.3130    0.5050    2.7900 H         1 POP1        0.0000
     32 O31         0.8450   -0.8810    4.3280 O.3       1 POP1        0.0000
     33 C31        -0.0740   -1.4840    3.5800 C.2       1 POP1        0.0000
     34 O32        -0.4820   -1.0870    2.4990 O.2       1 POP1        0.0000
     35 C32        -0.5090   -2.7710    4.2750 C.3       1 POP1        0.0000
     36 H2X        -0.6140   -2.5530    5.3600 H         1 POP1        0.0000
     37 H2Y         0.2950   -3.5230    4.1400 H         1 POP1        0.0000
     38 C23        -0.9790    0.0850    8.8820 C.3       1 POP1        0.0000
     39 H3R        -0.8600   -0.9720    8.5490 H         1 POP1        0.0000
     40 H3S        -2.0550    0.3520    8.7700 H         1 POP1        0.0000
     41 C24        -0.5930    0.1710   10.3650 C.3       1 POP1        0.0000
     42 H4R        -0.6880    1.2250   10.7100 H         1 POP1        0.0000
     43 H4S         0.4720   -0.1290   10.4810 H         1 POP1        0.0000
     44 C25        -1.4660   -0.7270   11.2520 C.3       1 POP1        0.0000
     45 H5R        -1.4120   -1.7730   10.8760 H         1 POP1        0.0000
     46 H5S        -2.5260   -0.3950   11.1760 H         1 POP1        0.0000
     47 C26        -1.0340   -0.7040   12.7240 C.3       1 POP1        0.0000
     48 H6R        -1.0590    0.3440   13.0980 H         1 POP1        0.0000
     49 H6S         0.0160   -1.0660   12.8000 H         1 POP1        0.0000
     50 C27        -1.9320   -1.5750   13.6160 C.3       1 POP1        0.0000
     51 H7R        -1.9470   -2.6100   13.2070 H         1 POP1        0.0000
     52 H7S        -2.9710   -1.1750   13.5680 H         1 POP1        0.0000
     53 C28        -1.4550   -1.6030   15.0790 C.3       1 POP1        0.0000
     54 H8R        -1.3810   -0.5490   15.4300 H         1 POP1        0.0000
     55 H8S        -0.4270   -2.0260   15.1070 H         1 POP1        0.0000
     56 C29        -2.3770   -2.4260   15.9470 C.2       1 POP1        0.0000
     57 H91        -2.5490   -3.4540   15.5920 H         1 POP1        0.0000
     58 C210       -3.0090   -2.0120   17.0620 C.2       1 POP1        0.0000
     59 H101       -3.6710   -2.7150   17.5910 H         1 POP1        0.0000
     60 C211       -2.8940   -0.6460   17.6920 C.3       1 POP1        0.0000
     61 H11R       -1.8830   -0.2100   17.5260 H         1 POP1        0.0000
     62 H11S       -3.0220   -0.7230   18.7950 H         1 POP1        0.0000
     63 C212       -3.9380    0.3410   17.1410 C.3       1 POP1        0.0000
     64 H12R       -4.9630   -0.0370   17.3530 H         1 POP1        0.0000
     65 H12S       -3.8270    0.4190   16.0350 H         1 POP1        0.0000
     66 C213       -3.7880    1.7450   17.7450 C.3       1 POP1        0.0000
     67 H13R       -2.7620    2.1200   17.5340 H         1 POP1        0.0000
     68 H13S       -3.9060    1.6830   18.8500 H         1 POP1        0.0000
     69 C214       -4.8090    2.7440   17.1830 C.3       1 POP1        0.0000
     70 H14R       -5.8370    2.3830   17.4110 H         1 POP1        0.0000
     71 H14S       -4.7030    2.7890   16.0760 H         1 POP1        0.0000
     72 C215       -4.6300    4.1550   17.7610 C.3       1 POP1        0.0000
     73 H15R       -3.6020    4.5140   17.5300 H         1 POP1        0.0000
     74 H15S       -4.7330    4.1120   18.8680 H         1 POP1        0.0000
     75 C216       -5.6480    5.1580   17.2010 C.3       1 POP1        0.0000
     76 H16R       -6.6770    4.8040   17.4370 H         1 POP1        0.0000
     77 H16S       -5.5510    5.1960   16.0920 H         1 POP1        0.0000
     78 C217       -5.4610    6.5700   17.7680 C.3       1 POP1        0.0000
     79 H17R       -4.4290    6.9170   17.5310 H         1 POP1        0.0000
     80 H17S       -5.5510    6.5250   18.8780 H         1 POP1        0.0000
     81 C218       -6.4700    7.5830   17.2220 C.3       1 POP1        0.0000
     82 H18R       -7.5080    7.2700   17.4700 H         1 POP1        0.0000
     83 H18S       -6.3830    7.6620   16.1170 H         1 POP1        0.0000
     84 H18T       -6.2920    8.5880   17.6620 H         1 POP1        0.0000
     85 C33        -1.8480   -3.3190    3.7340 C.3       1 POP1        0.0000
     86 H3X        -1.7610   -3.5500    2.6480 H         1 POP1        0.0000
     87 H3Y        -2.6400   -2.5430    3.8540 H         1 POP1        0.0000
     88 C34        -2.2850   -4.5830    4.4860 C.3       1 POP1        0.0000
     89 H4X        -2.3230   -4.3570    5.5760 H         1 POP1        0.0000
     90 H4Y        -1.5250   -5.3820    4.3330 H         1 POP1        0.0000
     91 C35        -3.6600   -5.1040    4.0460 C.3       1 POP1        0.0000
     92 H5X        -3.6370   -5.3420    2.9600 H         1 POP1        0.0000
     93 H5Y        -4.4190   -4.3050    4.2030 H         1 POP1        0.0000
     94 C36        -4.0780   -6.3540    4.8330 C.3       1 POP1        0.0000
     95 H6X        -4.0650   -6.1160    5.9200 H         1 POP1        0.0000
     96 H6Y        -3.3320   -7.1610    4.6550 H         1 POP1        0.0000
     97 C37        -5.4740   -6.8700    4.4570 C.3       1 POP1        0.0000
     98 H7X        -5.4970   -7.1160    3.3720 H         1 POP1        0.0000
     99 H7Y        -6.2220   -6.0660    4.6390 H         1 POP1        0.0000
    100 C38        -5.8650   -8.1150    5.2670 C.3       1 POP1        0.0000
    101 H8X        -5.8230   -7.8670    6.3510 H         1 POP1        0.0000
    102 H8Y        -5.1200   -8.9190    5.0760 H         1 POP1        0.0000
    103 C39        -7.2670   -8.6420    4.9310 C.3       1 POP1        0.0000
    104 H9X        -7.3140   -8.8940    3.8480 H         1 POP1        0.0000
    105 H9Y        -8.0150   -7.8410    5.1260 H         1 POP1        0.0000
    106 C310       -7.6300   -9.8840    5.7560 C.3       1 POP1        0.0000
    107 H10X       -7.5750   -9.6290    6.8380 H         1 POP1        0.0000
    108 H10Y       -6.8780  -10.6810    5.5600 H         1 POP1        0.0000
    109 C311       -9.0300  -10.4300    5.4430 C.3       1 POP1        0.0000
    110 H11X       -9.0870  -10.6900    4.3620 H         1 POP1        0.0000
    111 H11Y       -9.7850   -9.6370    5.6420 H         1 POP1        0.0000
    112 C312       -9.3700  -11.6720    6.2790 C.3       1 POP1        0.0000
    113 H12X       -9.3120  -11.4090    7.3590 H         1 POP1        0.0000
    114 H12Y       -8.6100  -12.4610    6.0810 H         1 POP1        0.0000
    115 C313      -10.7650  -12.2350    5.9750 C.3       1 POP1        0.0000
    116 H13X      -10.8240  -12.5000    4.8960 H         1 POP1        0.0000
    117 H13Y      -11.5270  -11.4490    6.1740 H         1 POP1        0.0000
    118 C314      -11.0910  -13.4760    6.8170 C.3       1 POP1        0.0000
    119 H14X      -11.0330  -13.2100    7.8960 H         1 POP1        0.0000
    120 H14Y      -10.3260  -14.2600    6.6220 H         1 POP1        0.0000
    121 C315      -12.4820  -14.0510    6.5180 C.3       1 POP1        0.0000
    122 H15X      -12.5370  -14.3120    5.4360 H         1 POP1        0.0000
    123 H15Y      -13.2450  -13.2620    6.7100 H         1 POP1        0.0000
    124 C316      -12.8170  -15.2900    7.3530 C.3       1 POP1        0.0000
    125 H16X      -12.7930  -15.0460    8.4370 H         1 POP1        0.0000
    126 H16Y      -12.0810  -16.0990    7.1590 H         1 POP1        0.0000
    127 H16Z      -13.8310  -15.6690    7.1000 H         1 POP1        0.0000
@<TRIPOS>BOND
     1    8    7 ar
     2    9    7 ar
     3    7    5 1 
     4   11   10 1 
     5    3    1 1 
     6    4    1 1 
     7    5   10 1 
     8    5    1 1 
     9    5    6 1 
    10   10   12 1 
    11   10   16 1 
    12    1    2 1 
    13   15   13 2 
    14   14   13 1 
    15   13   16 1 
    16   13   17 1 
    17   34   33 2 
    18   17   18 1 
    19   86   85 1 
    20   31   29 1 
    21   92   91 1 
    22   98   97 1 
    23   20   18 1 
    24   33   35 1 
    25   33   32 1 
    26   85   87 1 
    27   85   35 1 
    28   85   88 1 
    29   18   21 1 
    30   18   19 1 
    31  104  103 1 
    32   29   30 1 
    33   29   32 1 
    34   29   21 1 
    35   91   93 1 
    36   91   88 1 
    37   91   94 1 
    38   22   21 1 
    39   37   35 1 
    40   35   36 1 
    41   90   88 1 
    42  110  109 1 
    43   21   23 1 
    44   97   99 1 
    45   97   94 1 
    46   97  100 1 
    47   88   89 1 
    48   96   94 1 
    49   94   95 1 
    50  116  115 1 
    51  103  105 1 
    52  103  100 1 
    53  103  106 1 
    54  102  100 1 
    55  100  101 1 
    56  122  121 1 
    57  109  111 1 
    58  109  106 1 
    59  109  112 1 
    60  108  106 1 
    61  106  107 1 
    62   23   24 1 
    63  115  117 1 
    64  115  112 1 
    65  115  118 1 
    66   25   24 2 
    67  114  112 1 
    68  112  113 1 
    69   24   26 1 
    70  121  123 1 
    71  121  118 1 
    72  121  124 1 
    73  120  118 1 
    74  118  119 1 
    75  127  124 1 
    76  126  124 1 
    77  124  125 1 
    78   26   28 1 
    79   26   27 1 
    80   26   38 1 
    81   39   38 1 
    82   40   38 1 
    83   38   41 1 
    84   41   43 1 
    85   41   42 1 
    86   41   44 1 
    87   45   44 1 
    88   46   44 1 
    89   44   47 1 
    90   47   49 1 
    91   47   48 1 
    92   47   50 1 
    93   51   50 1 
    94   52   50 1 
    95   50   53 1 
    96   53   55 1 
    97   53   54 1 
    98   53   56 1 
    99   57   56 1 
   100   56   58 2 
   101   65   63 1 
   102   71   69 1 
   103   77   75 1 
   104   83   81 1 
   105   58   59 1 
   106   58   60 1 
   107   63   64 1 
   108   63   60 1 
   109   63   66 1 
   110   69   70 1 
   111   69   66 1 
   112   69   72 1 
   113   75   76 1 
   114   75   72 1 
   115   75   78 1 
   116   81   82 1 
   117   81   84 1 
   118   81   78 1 
   119   61   60 1 
   120   73   72 1 
   121   79   78 1 
   122   67   66 1 
   123   60   62 1 
   124   66   68 1 
   125   72   74 1 
   126   78   80 1 
