@<TRIPOS>MOLECULE
C:\Users\Praveer\PycharmProjects\pdb_to_mol2_converter\data\pdb\pph1.pdb
   17    17     0     0     0
SMALL
GASTEIGER

@<TRIPOS>ATOM
      1 CG          1.4420   -0.0380    0.0570 C.ar      1 PPH1        0.0000
      2 HG          1.9370   -0.9960    0.1020 H         1 PPH1        0.0000
      3 CD1         2.1730    1.1400    0.2660 C.ar      1 PPH1        0.0000
      4 HD1         3.2330    1.0910    0.4620 H         1 PPH1        0.0000
      5 CD2         0.0670    0.0280   -0.2030 C.ar      1 PPH1        0.0000
      6 HD2        -0.5000   -0.8760   -0.3660 H         1 PPH1        0.0000
      7 CE1         1.5210    2.3830    0.2240 C.ar      1 PPH1        0.0000
      8 HE1         2.0680    3.2980    0.3950 H         1 PPH1        0.0000
      9 CE2        -0.5770    1.2720   -0.2470 C.ar      1 PPH1        0.0000
     10 HE2        -1.6390    1.3340   -0.4390 H         1 PPH1        0.0000
     11 CZ          0.1510    2.4580   -0.0420 C.ar      1 PPH1        0.0000
     12 OH         -0.4590    3.7040   -0.0350 O.3       1 PPH1        0.0000
     13 P1         -1.2040    4.3330   -1.3200 P.3       1 PPH1        0.0000
     14 O2         -0.2010    4.2970   -2.5300 O.3       1 PPH1        0.0000
     15 H2          0.0230    3.3730   -2.6790 H         1 PPH1        0.0000
     16 O3         -2.2980    3.4050   -1.6690 O.2       1 PPH1        0.0000
     17 O4         -1.4670    5.7400   -0.9690 O.3       1 PPH1        0.0000
@<TRIPOS>BOND
     1   15   14 1 
     2   14   13 1 
     3   16   13 2 
     4   13   17 1 
     5   13   12 1 
     6   10    9 1 
     7    6    5 1 
     8    9    5 ar
     9    9   11 ar
    10    5    1 ar
    11   11   12 1 
    12   11    7 ar
    13    1    2 1 
    14    1    3 ar
    15    7    3 ar
    16    7    8 1 
    17    3    4 1 
