@<TRIPOS>MOLECULE
C:\Users\Praveer\PycharmProjects\pdb_to_mol2_converter\data\pdb\ppi1.pdb
   13    12     0     0     0
SMALL
GASTEIGER

@<TRIPOS>ATOM
      1 C1          0.1230    0.0980   -0.0030 C.3       1 PPI1        0.0000
      2 O11         1.5480    0.0250   -0.0010 O.3       1 PPI1        0.0000
      3 P1          2.3850    1.3970   -0.0000 P.3       1 PPI1        0.0000
      4 O12         3.8020    0.7920   -0.0000 O.3       1 PPI1        0.0000
      5 O13         1.9940    2.0610    1.2700 O.3       1 PPI1        0.0000
      6 O14         1.9950    2.0620   -1.2700 O.2       1 PPI1        0.0000
      7 P2          5.1700    1.6640    0.0000 P.3       1 PPI1        0.0000
      8 O22         6.2630    0.5960    0.0010 O.3       1 PPI1        0.0000
      9 O23         5.1860    2.4980    1.2770 O.3       1 PPI1        0.0000
     10 O24         5.1870    2.4980   -1.2770 O.2       1 PPI1        0.0000
     11 H11        -0.2430    0.6290   -0.9110 H         1 PPI1        0.0000
     12 H12        -0.2450    0.6310    0.9030 H         1 PPI1        0.0000
     13 H13        -0.2990   -0.9290   -0.0030 H         1 PPI1        0.0000
@<TRIPOS>BOND
     1   10    7 2 
     2    6    3 2 
     3   11    1 1 
     4    1   13 1 
     5    1    2 1 
     6    1   12 1 
     7    2    3 1 
     8    3    4 1 
     9    3    5 1 
    10    4    7 1 
    11    7    8 1 
    12    7    9 1 
