@<TRIPOS>MOLECULE
C:\Users\Praveer\PycharmProjects\pdb_to_mol2_converter\data\pdb\ppi2.pdb
   14    13     0     0     0
SMALL
GASTEIGER

@<TRIPOS>ATOM
      1 C1          0.2050   -0.0230   -0.0210 C.3       1 PPI1        0.0000
      2 O11         1.6340    0.0040   -0.0280 O.3       1 PPI1        0.0000
      3 P1          2.3470    1.4330   -0.0590 P.3       1 PPI1        0.0000
      4 O12         3.8320    0.9760   -0.0780 O.3       1 PPI1        0.0000
      5 O13         2.0210    2.1270    1.2040 O.3       1 PPI1        0.0000
      6 O14         1.9870    2.0840   -1.3260 O.2       1 PPI1        0.0000
      7 P2          5.2200    1.8080    0.0060 P.3       1 PPI1        0.0000
      8 O22         5.7200    0.3520   -0.0920 O.3       1 PPI1        0.0000
      9 H22         4.9070   -0.1220   -0.3160 H         1 PPI1        0.0000
     10 O23         5.5030    2.3130    1.4140 O.3       1 PPI1        0.0000
     11 O24         5.5330    2.4960   -1.3030 O.2       1 PPI1        0.0000
     12 H11        -0.2110    0.4960   -0.9160 H         1 PPI1        0.0000
     13 H12        -0.1960    0.4660    0.8980 H         1 PPI1        0.0000
     14 H13        -0.1490   -1.0760   -0.0370 H         1 PPI1        0.0000
@<TRIPOS>BOND
     1    6    3 2 
     2   11    7 2 
     3   12    1 1 
     4    9    8 1 
     5    8    7 1 
     6    4    3 1 
     7    4    7 1 
     8    3    2 1 
     9    3    5 1 
    10   14    1 1 
    11    2    1 1 
    12    1   13 1 
    13    7   10 1 
