@<TRIPOS>MOLECULE
C:\Users\Praveer\PycharmProjects\pdb_to_mol2_converter\data\pdb\ppox.pdb
   21    21     0     0     0
SMALL
GASTEIGER

@<TRIPOS>ATOM
      1 C1          1.3580    0.0140    0.0370 C.ar      1 PPO1        0.0000
      2 H1          1.9810   -0.8680    0.0620 H         1 PPO1        0.0000
      3 C2          1.8090    1.2940    0.0280 C.ar      1 PPO1        0.0000
      4 H2          2.8280    1.6640    0.0420 H         1 PPO1        0.0000
      5 N3          0.6930    2.0950   -0.0130 N.ar      1 PPO1        0.0000
      6 H3          0.7030    3.1060   -0.0390 H         1 PPO1        0.0000
      7 C4         -0.4310    1.2980   -0.0290 C.ar      1 PPO1        0.0000
      8 H4         -1.4470    1.6690   -0.0640 H         1 PPO1        0.0000
      9 C5         -0.0050    0.0040    0.0030 C.ar      1 PPO1        0.0000
     10 C6         -0.8740   -1.2310    0.0010 C.3       1 PPO1        0.0000
     11 H61        -0.4240   -1.9770   -0.6900 H         1 PPO1        0.0000
     12 H62        -1.8730   -0.9740   -0.4100 H         1 PPO1        0.0000
     13 C7         -1.0540   -1.9060    1.3850 C.3       1 PPO1        0.0000
     14 H7         -0.0390   -2.1090    1.8000 H         1 PPO1        0.0000
     15 O8         -1.6910   -3.1740    1.2270 O.3       1 PPO1        0.0000
     16 O9         -3.0540   -2.9690    0.7140 O.3       1 PPO1        0.0000
     17 H9         -3.5460   -3.1530    1.5190 H         1 PPO1        0.0000
     18 C8         -1.8060   -1.0230    2.4020 C.3       1 PPO1        0.0000
     19 H81        -2.7940   -0.7200    1.9980 H         1 PPO1        0.0000
     20 H82        -1.2200   -0.1050    2.6160 H         1 PPO1        0.0000
     21 H83        -1.9570   -1.5770    3.3510 H         1 PPO1        0.0000
@<TRIPOS>BOND
     1   11   10 1 
     2   12   10 1 
     3    8    7 1 
     4    6    5 1 
     5    7    5 ar
     6    7    9 ar
     7    5    3 ar
     8   10    9 1 
     9   10   13 1 
    10    9    1 ar
    11    3    1 ar
    12    3    4 1 
    13    1    2 1 
    14   16   15 1 
    15   16   17 1 
    16   15   13 1 
    17   13   14 1 
    18   13   18 1 
    19   19   18 1 
    20   18   20 1 
    21   18   21 1 
