@<TRIPOS>MOLECULE
C:\Users\Praveer\PycharmProjects\pdb_to_mol2_converter\data\pdb\prac.pdb
    8     7     0     0     0
SMALL
GASTEIGER

@<TRIPOS>ATOM
      1 C1         -0.0520   -0.0460   -0.0000 C.2       1 PRA1        0.0000
      2 H11        -0.5570   -1.0220   -0.0000 H         1 PRA1        0.0000
      3 H12        -0.6490    0.8810   -0.0000 H         1 PRA1        0.0000
      4 C2          1.3010    0.0540   -0.0000 C.2       1 PRA1        0.0000
      5 H21         1.8950   -0.8670    0.0000 H         1 PRA1        0.0000
      6 CG          2.0910    1.3310   -0.0000 C.2       1 PRA1        0.0000
      7 OD1         3.3480    1.2100    0.0000 O.co2     1 PRA1        0.0000
      8 OD2         1.5000    2.4460   -0.0000 O.co2     1 PRA1        0.0000
@<TRIPOS>BOND
     1    1    2 1 
     2    1    3 1 
     3    1    4 2 
     4    4    5 1 
     5    4    6 1 
     6    6    7 ar
     7    6    8 ar
