@<TRIPOS>MOLECULE
C:\Users\Praveer\PycharmProjects\pdb_to_mol2_converter\data\pdb\pral.pdb
    8     7     0     0     0
SMALL
GASTEIGER

@<TRIPOS>ATOM
      1 C1         -0.0170   -0.0070   -0.0000 C.2       1 PRA1        0.0000
      2 H11        -0.5650   -0.9620   -0.0000 H         1 PRA1        0.0000
      3 H12        -0.6090    0.9230   -0.0000 H         1 PRA1        0.0000
      4 C2          1.3320    0.0150   -0.0000 C.2       1 PRA1        0.0000
      5 H21         1.8820   -0.9390   -0.0000 H         1 PRA1        0.0000
      6 CG          2.0930    1.2870    0.0000 C.2       1 PRA1        0.0000
      7 OD1         3.2970    1.3360    0.0000 O.2       1 PRA1        0.0000
      8 H           1.4830    2.2140    0.0000 H         1 PRA1        0.0000
@<TRIPOS>BOND
     1    1    2 1 
     2    1    3 1 
     3    1    4 2 
     4    4    5 1 
     5    4    6 1 
     6    6    7 2 
     7    6    8 1 
