@<TRIPOS>MOLECULE
C:\Users\Praveer\PycharmProjects\pdb_to_mol2_converter\data\pdb\pram.pdb
   12    11     0     0     0
SMALL
GASTEIGER

@<TRIPOS>ATOM
      1 CC          1.2030   -0.0230    0.0940 C.3       1 PRA1        0.0000
      2 C           1.7500    1.3690    0.2330 C.2       1 PRA1        0.0000
      3 N           3.0910    1.5280    0.1210 N.am      1 PRA1        0.0000
      4 HC          3.4350    2.4590    0.1820 H         1 PRA1        0.0000
      5 HT          3.6530    0.7500   -0.1310 H         1 PRA1        0.0000
      6 O           1.0030    2.3200    0.4460 O.2       1 PRA1        0.0000
      7 HC1         0.1010    0.0370    0.2210 H         1 PRA1        0.0000
      8 HC2         1.6050   -0.6550    0.9150 H         1 PRA1        0.0000
      9 C1          1.5310   -0.6540   -1.2780 C.3       1 PRA1        0.0000
     10 H11         2.6210   -0.8210   -1.3990 H         1 PRA1        0.0000
     11 H12         1.1760   -0.0010   -2.1060 H         1 PRA1        0.0000
     12 H13         1.0190   -1.6370   -1.3760 H         1 PRA1        0.0000
@<TRIPOS>BOND
     1   11    9 1 
     2   10    9 1 
     3   12    9 1 
     4    9    1 1 
     5    5    3 1 
     6    1    7 1 
     7    1    2 1 
     8    1    8 1 
     9    3    4 1 
    10    3    2 am
    11    2    6 2 
