@<TRIPOS>MOLECULE
C:\Users\Praveer\PycharmProjects\pdb_to_mol2_converter\data\pdb\prld.pdb
   14    14     0     0     0
SMALL
GASTEIGER

@<TRIPOS>ATOM
      1 N1         -0.0920    1.4110    0.9230 N.3       1 PRL1        0.0000
      2 H1         -1.0430    1.7700    1.0110 H         1 PRL1        0.0000
      3 C2          0.0340    0.1570    0.1440 C.3       1 PRL1        0.0000
      4 H21        -0.4910    0.2620   -0.8200 H         1 PRL1        0.0000
      5 H22        -0.4170   -0.6940    0.6810 H         1 PRL1        0.0000
      6 C3          1.5410    0.0060   -0.0400 C.3       1 PRL1        0.0000
      7 H31         1.7900   -0.4950   -0.9850 H         1 PRL1        0.0000
      8 H32         1.9680   -0.6090    0.7680 H         1 PRL1        0.0000
      9 C4          2.0910    1.4400    0.0290 C.3       1 PRL1        0.0000
     10 H41         2.6440    1.7230   -0.8760 H         1 PRL1        0.0000
     11 H42         2.7900    1.5420    0.8750 H         1 PRL1        0.0000
     12 C5          0.8620    2.3180    0.2440 C.3       1 PRL1        0.0000
     13 H51         1.0760    3.2060    0.8600 H         1 PRL1        0.0000
     14 H52         0.4320    2.6670   -0.7100 H         1 PRL1        0.0000
@<TRIPOS>BOND
     1    7    6 1 
     2   10    9 1 
     3    4    3 1 
     4   14   12 1 
     5    6    9 1 
     6    6    3 1 
     7    6    8 1 
     8    9   12 1 
     9    9   11 1 
    10    3    5 1 
    11    3    1 1 
    12   12   13 1 
    13   12    1 1 
    14    1    2 1 
