@<TRIPOS>MOLECULE
C:\Users\Praveer\PycharmProjects\pdb_to_mol2_converter\data\pdb\prlp.pdb
   15    15     0     0     0
SMALL
GASTEIGER

@<TRIPOS>ATOM
      1 N1         -0.2260    1.4940    0.8430 N.4       1 PRL1        0.0000
      2 H11        -0.6040    1.3200    1.7680 H         1 PRL1        0.0000
      3 H12        -0.9210    2.0650    0.3730 H         1 PRL1        0.0000
      4 C2          0.0030    0.1800    0.0860 C.3       1 PRL1        0.0000
      5 H21        -0.3650    0.2490   -0.9710 H         1 PRL1        0.0000
      6 H22        -0.4830   -0.7080    0.5640 H         1 PRL1        0.0000
      7 C3          1.5320    0.0290    0.0590 C.3       1 PRL1        0.0000
      8 H31         1.8890   -0.6030   -0.7700 H         1 PRL1        0.0000
      9 H32         1.8920   -0.4440    0.9890 H         1 PRL1        0.0000
     10 C4          2.0290    1.4640   -0.0400 C.3       1 PRL1        0.0000
     11 H41         1.9040    1.8490   -1.0670 H         1 PRL1        0.0000
     12 H42         3.0990    1.5630    0.2020 H         1 PRL1        0.0000
     13 C5          1.1190    2.2270    0.9370 C.3       1 PRL1        0.0000
     14 H51         1.5570    2.1470    1.9660 H         1 PRL1        0.0000
     15 H52         1.0610    3.3130    0.6700 H         1 PRL1        0.0000
@<TRIPOS>BOND
     1   11   10 1 
     2    5    4 1 
     3    8    7 1 
     4   10    7 1 
     5   10   12 1 
     6   10   13 1 
     7    7    4 1 
     8    7    9 1 
     9    4    6 1 
    10    4    1 1 
    11    3    1 1 
    12   15   13 1 
    13    1   13 1 
    14    1    2 1 
    15   13   14 1 
