@<TRIPOS>MOLECULE
C:\Users\Praveer\PycharmProjects\pdb_to_mol2_converter\data\pdb\prnc.pdb
   23    23     0     0     0
SMALL
GASTEIGER

@<TRIPOS>ATOM
      1 N1          1.4010    0.0060   -0.0440 N.pl3     1 PRN1        0.0000
      2 H1          1.9720   -0.8140   -0.1320 H         1 PRN1        0.0000
      3 C2          2.0900    1.2140   -0.0350 C.3       1 PRN1        0.0000
      4 N2          3.4390    1.1320   -0.0470 N.3       1 PRN1        0.0000
      5 H2          3.7650    0.2260    0.2520 H         1 PRN1        0.0000
      6 N3          1.4570    2.3920   -0.0000 N.2       1 PRN1        0.0000
      7 C4          0.0740    2.4140    0.0350 C.2       1 PRN1        0.0000
      8 N4         -0.5720    3.5700    0.0800 N.pl3     1 PRN1        0.0000
      9 H4          0.1320    4.2760    0.0770 H         1 PRN1        0.0000
     10 C5         -0.6760    1.2040    0.0250 C.2       1 PRN1        0.0000
     11 H5         -1.7490    1.2650    0.0500 H         1 PRN1        0.0000
     12 C6          0.0060   -0.0080   -0.0190 C.2       1 PRN1        0.0000
     13 H6         -0.5170   -0.9590   -0.0390 H         1 PRN1        0.0000
     14 C7          4.3160    2.2950    0.2500 C.3       1 PRN1        0.0000
     15 H71         3.9910    3.1910   -0.3260 H         1 PRN1        0.0000
     16 H72         5.3580    2.0630   -0.0670 H         1 PRN1        0.0000
     17 C8          4.3050    2.6200    1.7530 C.3       1 PRN1        0.0000
     18 H81         4.5990    1.7130    2.3280 H         1 PRN1        0.0000
     19 H82         3.2680    2.8900    2.0610 H         1 PRN1        0.0000
     20 C9          5.2400    3.7730    2.1430 C.3       1 PRN1        0.0000
     21 H91         4.9520    4.7040    1.6090 H         1 PRN1        0.0000
     22 H92         6.2940    3.5310    1.8880 H         1 PRN1        0.0000
     23 H93         5.1810    3.9690    3.2360 H         1 PRN1        0.0000
@<TRIPOS>BOND
     1   15   14 1 
     2    2    1 1 
     3   16   14 1 
     4    4    3 1 
     5    4   14 1 
     6    4    5 1 
     7    1    3 1 
     8    1   12 1 
     9   13   12 1 
    10    3    6 1 
    11   12   10 2 
    12    6    7 2 
    13   10    7 1 
    14   10   11 1 
    15    7    8 1 
    16    9    8 1 
    17   14   17 1 
    18   21   20 1 
    19   17   19 1 
    20   17   20 1 
    21   17   18 1 
    22   22   20 1 
    23   20   23 1 
