@<TRIPOS>MOLECULE
C:\Users\Praveer\PycharmProjects\pdb_to_mol2_converter\data\pdb\pro2.pdb
   12    11     0     0     0
SMALL
GASTEIGER

@<TRIPOS>ATOM
      1 C2          1.5430   -0.0170    0.0210 C.3       1 PRO1        0.0000
      2 O2          1.9750   -0.6960   -1.1400 O.3       1 PRO1        0.0000
      3 HO2         1.6200   -1.5840   -1.0740 H         1 PRO1        0.0000
      4 H21         1.9090   -0.5580    0.9250 H         1 PRO1        0.0000
      5 C1          0.0150    0.0090    0.0080 C.3       1 PRO1        0.0000
      6 H11        -0.4010   -1.0200    0.0260 H         1 PRO1        0.0000
      7 H12        -0.3520    0.5240   -0.9060 H         1 PRO1        0.0000
      8 H13        -0.3660    0.5580    0.8940 H         1 PRO1        0.0000
      9 C3          2.1430    1.3880   -0.0090 C.3       1 PRO1        0.0000
     10 H31         1.8050    1.9300   -0.9180 H         1 PRO1        0.0000
     11 H32         3.2520    1.3340   -0.0270 H         1 PRO1        0.0000
     12 H33         1.8280    1.9650    0.8850 H         1 PRO1        0.0000
@<TRIPOS>BOND
     1    2    3 1 
     2    2    1 1 
     3   10    9 1 
     4    7    5 1 
     5   11    9 1 
     6    9    1 1 
     7    9   12 1 
     8    5    1 1 
     9    5    6 1 
    10    5    8 1 
    11    1    4 1 
