@<TRIPOS>MOLECULE
C:\Users\Praveer\PycharmProjects\pdb_to_mol2_converter\data\pdb\proa.pdb
   10     9     0     0     0
SMALL
GASTEIGER

@<TRIPOS>ATOM
      1 C2          1.9480    1.3170   -0.0010 C.3       1 PRO1        0.0000
      2 C1          1.2090   -0.0250   -0.0000 C.2       1 PRO1        0.0000
      3 H21         1.6130    1.8720    0.9000 H         1 PRO1        0.0000
      4 H22         1.6120    1.8720   -0.9010 H         1 PRO1        0.0000
      5 O1         -0.0460    0.0710    0.0000 O.co2     1 PRO1        0.0000
      6 O2          1.9090   -1.0680   -0.0000 O.co2     1 PRO1        0.0000
      7 C3          3.4900    1.1950   -0.0020 C.3       1 PRO1        0.0000
      8 H31         3.8260    0.6340   -0.9010 H         1 PRO1        0.0000
      9 H32         3.8270    0.6350    0.8970 H         1 PRO1        0.0000
     10 H33         3.9640    2.1980   -0.0020 H         1 PRO1        0.0000
@<TRIPOS>BOND
     1    4    1 1 
     2    8    7 1 
     3    7   10 1 
     4    7    1 1 
     5    7    9 1 
     6    1    2 1 
     7    1    3 1 
     8    2    5 ar
     9    2    6 ar
