@<TRIPOS>MOLECULE
C:\Users\Praveer\PycharmProjects\pdb_to_mol2_converter\data\pdb\proh.pdb
   12    11     0     0     0
SMALL
GASTEIGER

@<TRIPOS>ATOM
      1 O1         -0.4860   -1.3310   -0.0020 O.3       1 PRO1        0.0000
      2 HO1        -1.4470   -1.2950   -0.0020 H         1 PRO1        0.0000
      3 C1         -0.0050    0.0090   -0.0010 C.3       1 PRO1        0.0000
      4 H11        -0.3740    0.5410    0.9050 H         1 PRO1        0.0000
      5 H12        -0.3730    0.5420   -0.9060 H         1 PRO1        0.0000
      6 C2          1.5280   -0.0070    0.0000 C.3       1 PRO1        0.0000
      7 H21         1.8770   -0.5680   -0.8960 H         1 PRO1        0.0000
      8 H22         1.8760   -0.5700    0.8970 H         1 PRO1        0.0000
      9 C3          2.1710    1.3870    0.0020 C.3       1 PRO1        0.0000
     10 H31         1.8640    1.9580    0.9040 H         1 PRO1        0.0000
     11 H32         1.8650    1.9590   -0.9000 H         1 PRO1        0.0000
     12 H33         3.2800    1.3020    0.0030 H         1 PRO1        0.0000
@<TRIPOS>BOND
     1    5    3 1 
     2   11    9 1 
     3    7    6 1 
     4    1    2 1 
     5    1    3 1 
     6    3    6 1 
     7    3    4 1 
     8    6    9 1 
     9    6    8 1 
    10    9   12 1 
    11    9   10 1 
