@<TRIPOS>MOLECULE
C:\Users\Praveer\PycharmProjects\pdb_to_mol2_converter\data\pdb\prol.pdb
   10     9     0     0     0
SMALL
GASTEIGER

@<TRIPOS>ATOM
      1 C1         -0.0410   -0.0430   -0.0170 C.2       1 PRO1        0.0000
      2 H11        -0.5610   -1.0130   -0.0040 H         1 PRO1        0.0000
      3 H12        -0.6470    0.8740   -0.1030 H         1 PRO1        0.0000
      4 C2          1.3060    0.0350    0.0250 C.2       1 PRO1        0.0000
      5 H21         1.8470   -0.9230    0.0730 H         1 PRO1        0.0000
      6 C3          2.2310    1.2320    0.0020 C.3       1 PRO1        0.0000
      7 H31         2.8340    1.2290   -0.9330 H         1 PRO1        0.0000
      8 H32         2.9450    1.1950    0.8560 H         1 PRO1        0.0000
      9 OR          1.5150    2.4630    0.0560 O.3       1 PRO1        0.0000
     10 HR          1.0800    2.4780    0.9120 H         1 PRO1        0.0000
@<TRIPOS>BOND
     1    7    6 1 
     2    3    1 1 
     3    1    2 1 
     4    1    4 2 
     5    6    4 1 
     6    6    9 1 
     7    6    8 1 
     8    4    5 1 
     9    9   10 1 
