@<TRIPOS>MOLECULE
C:\Users\Praveer\PycharmProjects\pdb_to_mol2_converter\data\pdb\prpa.pdb
   11    10     0     0     0
SMALL
GASTEIGER

@<TRIPOS>ATOM
      1 H11        -0.3990   -1.0260    0.0050 H         1 PRP1        0.0000
      2 H12        -0.3690    0.5310   -0.9030 H         1 PRP1        0.0000
      3 H13        -0.3720    0.5390    0.8990 H         1 PRP1        0.0000
      4 C1          0.0090    0.0070    0.0010 C.3       1 PRP1        0.0000
      5 C2          1.5390   -0.0180    0.0030 C.3       1 PRP1        0.0000
      6 H21         1.9000   -0.5730   -0.8930 H         1 PRP1        0.0000
      7 H22         1.8980   -0.5680    0.9030 H         1 PRP1        0.0000
      8 H31         1.8070    1.9540    0.8990 H         1 PRP1        0.0000
      9 H32         1.8080    1.9500   -0.9030 H         1 PRP1        0.0000
     10 H33         3.2470    1.3450    0.0000 H         1 PRP1        0.0000
     11 C3          2.1360    1.3910   -0.0010 C.3       1 PRP1        0.0000
@<TRIPOS>BOND
     1    2    4 1 
     2    9   11 1 
     3    6    5 1 
     4   11   10 1 
     5   11    5 1 
     6   11    8 1 
     7    4    5 1 
     8    4    1 1 
     9    4    3 1 
    10    5    7 1 
