@<TRIPOS>MOLECULE
C:\Users\Praveer\PycharmProjects\pdb_to_mol2_converter\data\pdb\prpe.pdb
    9     8     0     0     0
SMALL
GASTEIGER

@<TRIPOS>ATOM
      1 C1          1.1030   -0.0010   -0.0000 C.2       1 PRP1        0.0000
      2 H11         1.6200   -0.9720   -0.0000 H         1 PRP1        0.0000
      3 H12         0.0020    0.0070    0.0000 H         1 PRP1        0.0000
      4 C2          1.7900    1.1520    0.0000 C.2       1 PRP1        0.0000
      5 H21         2.8940    1.1090   -0.0000 H         1 PRP1        0.0000
      6 C3          1.1610    2.5190   -0.0000 C.3       1 PRP1        0.0000
      7 H31         0.0500    2.4720    0.0000 H         1 PRP1        0.0000
      8 H32         1.4700    3.0970   -0.8970 H         1 PRP1        0.0000
      9 H33         1.4700    3.0970    0.8970 H         1 PRP1        0.0000
@<TRIPOS>BOND
     1    8    6 1 
     2    1    2 1 
     3    1    3 1 
     4    1    4 2 
     5    4    5 1 
     6    4    6 1 
     7    6    7 1 
     8    6    9 1 
