@<TRIPOS>MOLECULE
C:\Users\Praveer\PycharmProjects\pdb_to_mol2_converter\data\pdb\prpy.pdb
    7     6     0     0     0
SMALL
GASTEIGER

@<TRIPOS>ATOM
      1 C1          0.0030   -0.0020    0.0000 C.3       1 PRP1        0.0000
      2 H11        -0.3950    1.0350   -0.0000 H         1 PRP1        0.0000
      3 H12        -0.3910   -0.5210    0.8990 H         1 PRP1        0.0000
      4 H13        -0.3910   -0.5210   -0.8990 H         1 PRP1        0.0000
      5 C2          1.4650    0.0020   -0.0000 C.1       1 PRP1        0.0000
      6 C3          2.6840    0.0040    0.0000 C.1       1 PRP1        0.0000
      7 H31         3.7540    0.0070   -0.0000 H         1 PRP1        0.0000
@<TRIPOS>BOND
     1    4    1 1 
     2    1    2 1 
     3    1    5 1 
     4    1    3 1 
     5    5    6 3 
     6    6    7 1 
