@<TRIPOS>MOLECULE
C:\Users\Praveer\PycharmProjects\pdb_to_mol2_converter\data\pdb\prsh.pdb
   12    11     0     0     0
SMALL
GASTEIGER

@<TRIPOS>ATOM
      1 S1         -0.7440   -1.6550   -0.0060 S.3       1 PRS1        0.0000
      2 HS1        -0.2370   -2.0290    1.1610 H         1 PRS1        0.0000
      3 C1          0.0010    0.0060    0.0030 C.3       1 PRS1        0.0000
      4 H11        -0.3460    0.5720    0.8960 H         1 PRS1        0.0000
      5 H12        -0.3410    0.5720   -0.8930 H         1 PRS1        0.0000
      6 C2          1.5380   -0.0140    0.0010 C.3       1 PRS1        0.0000
      7 H21         1.8890   -0.5700   -0.8990 H         1 PRS1        0.0000
      8 H22         1.8950   -0.5720    0.8970 H         1 PRS1        0.0000
      9 C3          2.1670    1.3830    0.0010 C.3       1 PRS1        0.0000
     10 H31         1.8540    1.9520    0.9030 H         1 PRS1        0.0000
     11 H32         1.8510    1.9520   -0.8990 H         1 PRS1        0.0000
     12 H33         3.2760    1.3120   -0.0010 H         1 PRS1        0.0000
@<TRIPOS>BOND
     1    7    6 1 
     2   11    9 1 
     3    5    3 1 
     4    1    3 1 
     5    1    2 1 
     6   12    9 1 
     7    6    9 1 
     8    6    3 1 
     9    6    8 1 
    10    9   10 1 
    11    3    4 1 
