@<TRIPOS>MOLECULE
C:\Users\Praveer\PycharmProjects\pdb_to_mol2_converter\data\pdb\przp.pdb
   14    14     0     0     0
SMALL
GASTEIGER

@<TRIPOS>ATOM
      1 N1         -0.2770    1.6420    0.2890 N.3       1 PRZ1        0.0000
      2 H1         -1.2040    1.8590   -0.1010 H         1 PRZ1        0.0000
      3 N2          0.0040    0.2220    0.0690 N.4       1 PRZ1        0.0000
      4 H21        -0.4620   -0.0990   -0.7750 H         1 PRZ1        0.0000
      5 H22        -0.4180   -0.2940    0.8380 H         1 PRZ1        0.0000
      6 C3          1.5180    0.0000    0.0110 C.3       1 PRZ1        0.0000
      7 H31         1.8360   -0.5700   -0.8990 H         1 PRZ1        0.0000
      8 H32         1.9150   -0.5290    0.9160 H         1 PRZ1        0.0000
      9 C4          2.0610    1.4430   -0.0330 C.3       1 PRZ1        0.0000
     10 H41         2.8970    1.5640   -0.7390 H         1 PRZ1        0.0000
     11 H42         2.4460    1.7380    0.9590 H         1 PRZ1        0.0000
     12 C5          0.8560    2.3050   -0.4060 C.3       1 PRZ1        0.0000
     13 H51         0.9680    3.3480   -0.0660 H         1 PRZ1        0.0000
     14 H52         0.6800    2.3350   -1.4950 H         1 PRZ1        0.0000
@<TRIPOS>BOND
     1   14   12 1 
     2    7    6 1 
     3    4    3 1 
     4   10    9 1 
     5   12   13 1 
     6   12    9 1 
     7   12    1 1 
     8    2    1 1 
     9    9    6 1 
    10    9   11 1 
    11    6    3 1 
    12    6    8 1 
    13    3    1 1 
    14    3    5 1 
