@<TRIPOS>MOLECULE
C:\Users\Praveer\PycharmProjects\pdb_to_mol2_converter\data\pdb\pscu.pdb
   21    21     0     0     0
SMALL
GASTEIGER

@<TRIPOS>ATOM
      1 CG          0.0880   -0.0070   -0.0110 C.ar      1 PSC1        0.0000
      2 CD1         1.4890    0.0030   -0.0060 C.ar      1 PSC1        0.0000
      3 HD1         2.0310   -0.9310   -0.0090 H         1 PSC1        0.0000
      4 CD2        -0.6130    1.2060   -0.0010 C.ar      1 PSC1        0.0000
      5 HD2        -1.6920    1.1970    0.0000 H         1 PSC1        0.0000
      6 CE1         2.1840    1.2180    0.0010 C.ar      1 PSC1        0.0000
      7 HE1         3.2640    1.2180    0.0030 H         1 PSC1        0.0000
      8 CE2         0.0740    2.4300    0.0050 C.ar      1 PSC1        0.0000
      9 CZ          1.4870    2.4360    0.0080 C.ar      1 PSC1        0.0000
     10 C1          2.2560    3.7280    0.0170 C.3       1 PSC1        0.0000
     11 H11         3.3480    3.5270    0.0740 H         1 PSC1        0.0000
     12 H12         1.9500    4.3260    0.9020 H         1 PSC1        0.0000
     13 H13         2.0330    4.2860   -0.9160 H         1 PSC1        0.0000
     14 C2         -0.7060    3.7150    0.0050 C.3       1 PSC1        0.0000
     15 H21        -0.4630    4.2850    0.9270 H         1 PSC1        0.0000
     16 H22        -1.7970    3.5050   -0.0200 H         1 PSC1        0.0000
     17 H23        -0.4270    4.3070   -0.8930 H         1 PSC1        0.0000
     18 C3         -0.6570   -1.3060   -0.0060 C.3       1 PSC1        0.0000
     19 H31        -0.8410   -1.6050    1.0480 H         1 PSC1        0.0000
     20 H32        -0.0540   -2.0850   -0.5200 H         1 PSC1        0.0000
     21 H33        -1.6250   -1.1830   -0.5380 H         1 PSC1        0.0000
@<TRIPOS>BOND
     1   13   10 1 
     2   17   14 1 
     3   21   18 1 
     4   20   18 1 
     5   16   14 1 
     6    1    2 ar
     7    1   18 1 
     8    1    4 ar
     9    3    2 1 
    10    2    6 ar
    11   18   19 1 
    12    4    5 1 
    13    4    8 ar
    14    6    7 1 
    15    6    9 ar
    16    8   14 1 
    17    8    9 ar
    18   14   15 1 
    19    9   10 1 
    20   10   11 1 
    21   10   12 1 
