@<TRIPOS>MOLECULE
C:\Users\Praveer\PycharmProjects\pdb_to_mol2_converter\data\pdb\psicos.pdb
   24    23     0     0     0
SMALL
GASTEIGER

@<TRIPOS>ATOM
      1 C1          0.1440   -0.0780   -0.3010 C.3       1 PSI1        0.0000
      2 H11        -0.5410    0.6230    0.2230 H         1 PSI1        0.0000
      3 H12         0.1700    0.1840   -1.3800 H         1 PSI1        0.0000
      4 O1         -0.3580   -1.4120   -0.1610 O.3       1 PSI1        0.0000
      5 HO1         0.3090   -1.8840    0.3570 H         1 PSI1        0.0000
      6 C2          1.5350    0.0640    0.2820 C.2       1 PSI1        0.0000
      7 O2          2.0830   -0.8870    0.8100 O.2       1 PSI1        0.0000
      8 C3          2.2020    1.4310    0.2880 C.3       1 PSI1        0.0000
      9 H3          2.1830    1.7910    1.3420 H         1 PSI1        0.0000
     10 O3          1.4590    2.3670   -0.5090 O.3       1 PSI1        0.0000
     11 HO3         2.1250    2.9500   -0.9240 H         1 PSI1        0.0000
     12 C4          3.6560    1.4160   -0.1790 C.3       1 PSI1        0.0000
     13 H4          3.7130    1.0490   -1.2310 H         1 PSI1        0.0000
     14 O4          4.4120    0.5020    0.6320 O.3       1 PSI1        0.0000
     15 HO4         3.8480   -0.2790    0.7690 H         1 PSI1        0.0000
     16 C5          4.2800    2.8040   -0.0790 C.3       1 PSI1        0.0000
     17 H5          3.9290    3.3260    0.8410 H         1 PSI1        0.0000
     18 O5          3.8720    3.5490   -1.2350 O.3       1 PSI1        0.0000
     19 HO5         4.6340    4.1380   -1.3720 H         1 PSI1        0.0000
     20 C6          5.8030    2.7660   -0.0600 C.3       1 PSI1        0.0000
     21 H61         6.1890    2.1720   -0.9190 H         1 PSI1        0.0000
     22 H62         6.1510    2.2770    0.8790 H         1 PSI1        0.0000
     23 O6          6.3400    4.0980   -0.1130 O.3       1 PSI1        0.0000
     24 HO6         7.1530    4.1090    0.4050 H         1 PSI1        0.0000
@<TRIPOS>BOND
     1    3    1 1 
     2   19   18 1 
     3   18   16 1 
     4   13   12 1 
     5   11   10 1 
     6   21   20 1 
     7   10    8 1 
     8    1    4 1 
     9    1    2 1 
    10    1    6 1 
    11   12   16 1 
    12   12    8 1 
    13   12   14 1 
    14    4    5 1 
    15   23   20 1 
    16   23   24 1 
    17   16   20 1 
    18   16   17 1 
    19   20   22 1 
    20    6    8 1 
    21    6    7 2 
    22    8    9 1 
    23   14   15 1 
