@<TRIPOS>MOLECULE
C:\Users\Praveer\PycharmProjects\pdb_to_mol2_converter\data\pdb\psm.pdb
  127   126     0     0     0
SMALL
GASTEIGER

@<TRIPOS>ATOM
      1 N          19.9940    1.3290   -1.1510 N.4       1 PSM1        0.0000
      2 C15        19.6560    1.1580   -2.5990 C.3       1 PSM1        0.0000
      3 H15A       19.0070    1.9670   -2.9190 H         1 PSM1        0.0000
      4 H15B       19.1420    0.2230   -2.7750 H         1 PSM1        0.0000
      5 H15C       20.5470    1.1900   -3.2130 H         1 PSM1        0.0000
      6 C14        18.7400    1.2760   -0.3240 C.3       1 PSM1        0.0000
      7 H14A       18.1660    0.3810   -0.4810 H         1 PSM1        0.0000
      8 H14B       18.1120    2.1500   -0.5170 H         1 PSM1        0.0000
      9 H14C       18.9730    1.3790    0.7350 H         1 PSM1        0.0000
     10 C13        20.9080    0.2370   -0.6850 C.3       1 PSM1        0.0000
     11 H13A       21.8380    0.2370   -1.2380 H         1 PSM1        0.0000
     12 H13B       20.4380   -0.7320   -0.7940 H         1 PSM1        0.0000
     13 H13C       21.1410    0.3750    0.3670 H         1 PSM1        0.0000
     14 C12        20.6450    2.6820   -0.9280 C.3       1 PSM1        0.0000
     15 H12A       21.6120    2.7480   -1.4050 H         1 PSM1        0.0000
     16 H12B       20.8410    2.8060    0.1440 H         1 PSM1        0.0000
     17 C11        19.8040    3.9070   -1.3380 C.3       1 PSM1        0.0000
     18 H11A       18.7420    3.6650   -1.5640 H         1 PSM1        0.0000
     19 H11B       20.2310    4.3530   -2.2640 H         1 PSM1        0.0000
     20 P          19.2570    4.5050    1.1270 P.3       1 PSM1        0.0000
     21 O13        17.9500    3.8340    0.9290 O.2       1 PSM1        0.0000
     22 O14        20.2810    3.7130    1.8430 O.3       1 PSM1        0.0000
     23 O11        19.0540    5.9320    1.7880 O.3       1 PSM1        0.0000
     24 O12        19.8720    4.8620   -0.2920 O.3       1 PSM1        0.0000
     25 C1S        18.5460    7.0410    1.0250 C.3       1 PSM1        0.0000
     26 H1S        18.6540    6.9140   -0.0790 H         1 PSM1        0.0000
     27 H1T        19.1280    7.9470    1.3010 H         1 PSM1        0.0000
     28 NF         16.2420    6.1730    0.9000 N.am      1 PSM1        0.0000
     29 HNF        16.2510    5.3860    1.5070 H         1 PSM1        0.0000
     30 C2S        17.0410    7.3000    1.3330 C.3       1 PSM1        0.0000
     31 H2S        16.9600    7.2690    2.4450 H         1 PSM1        0.0000
     32 C3S        16.5470    8.7290    0.9390 C.3       1 PSM1        0.0000
     33 H3S        16.8210    8.9550   -0.1110 H         1 PSM1        0.0000
     34 O3         17.1600    9.7380    1.7460 O.3       1 PSM1        0.0000
     35 HO3        17.8610    9.2980    2.2310 H         1 PSM1        0.0000
     36 C4S        15.0550    8.8510    1.1350 C.2       1 PSM1        0.0000
     37 H4S        14.7320    8.9370    2.1790 H         1 PSM1        0.0000
     38 C5S        14.1330    8.7910    0.1470 C.2       1 PSM1        0.0000
     39 H5S        14.4790    8.6240   -0.8880 H         1 PSM1        0.0000
     40 C6S        12.6340    8.8000    0.3340 C.3       1 PSM1        0.0000
     41 H6S        12.1660    9.5290   -0.3640 H         1 PSM1        0.0000
     42 H6T        12.3520    9.1060    1.3660 H         1 PSM1        0.0000
     43 C7S        12.0410    7.4000    0.0640 C.3       1 PSM1        0.0000
     44 H7S        12.4720    6.6830    0.8000 H         1 PSM1        0.0000
     45 H7T        12.3320    7.0620   -0.9580 H         1 PSM1        0.0000
     46 C8S        10.5100    7.3240    0.1730 C.3       1 PSM1        0.0000
     47 H8S        10.0570    7.9520   -0.6260 H         1 PSM1        0.0000
     48 H8T        10.1910    7.7380    1.1560 H         1 PSM1        0.0000
     49 C9S         9.9850    5.8820    0.0470 C.3       1 PSM1        0.0000
     50 H9S        10.3970    5.2740    0.8830 H         1 PSM1        0.0000
     51 H9T        10.3550    5.4380   -0.9040 H         1 PSM1        0.0000
     52 C10S        8.4510    5.7920    0.0720 C.3       1 PSM1        0.0000
     53 H10S        8.0410    6.3570   -0.7950 H         1 PSM1        0.0000
     54 H10T        8.0740    6.2780    1.0000 H         1 PSM1        0.0000
     55 C11S        7.9300    4.3460    0.0200 C.3       1 PSM1        0.0000
     56 H11S        8.3120    3.7920    0.9070 H         1 PSM1        0.0000
     57 H11T        8.3280    3.8450   -0.8900 H         1 PSM1        0.0000
     58 C12S        6.3960    4.2700    0.0040 C.3       1 PSM1        0.0000
     59 H12S        6.0160    4.8060   -0.8950 H         1 PSM1        0.0000
     60 H12T        5.9990    4.7960    0.9010 H         1 PSM1        0.0000
     61 C13S        5.8530    2.8320   -0.0060 C.3       1 PSM1        0.0000
     62 H13S        6.2310    2.2920    0.8910 H         1 PSM1        0.0000
     63 H13T        6.2340    2.3020   -0.9070 H         1 PSM1        0.0000
     64 C14S        4.3170    2.7960   -0.0070 C.3       1 PSM1        0.0000
     65 H14S        3.9460    3.3380   -0.9060 H         1 PSM1        0.0000
     66 H14T        3.9450    3.3390    0.8900 H         1 PSM1        0.0000
     67 C15S        3.7260    1.3780   -0.0050 C.3       1 PSM1        0.0000
     68 H15S        4.0860    0.8310    0.8940 H         1 PSM1        0.0000
     69 H15T        4.0850    0.8280   -0.9040 H         1 PSM1        0.0000
     70 C16S        2.1890    1.3960   -0.0030 C.3       1 PSM1        0.0000
     71 H16S        1.8330    1.9490   -0.9010 H         1 PSM1        0.0000
     72 H16T        1.8350    1.9500    0.8950 H         1 PSM1        0.0000
     73 C17S        1.5620   -0.0050   -0.0020 C.3       1 PSM1        0.0000
     74 H17S        1.9190   -0.5580    0.8970 H         1 PSM1        0.0000
     75 H17T        1.9190   -0.5590   -0.9000 H         1 PSM1        0.0000
     76 C18S        0.0300    0.0180   -0.0020 C.3       1 PSM1        0.0000
     77 H18S       -0.3520    0.5450   -0.9030 H         1 PSM1        0.0000
     78 H18T       -0.3520    0.5450    0.8990 H         1 PSM1        0.0000
     79 H18U       -0.3770   -1.0160   -0.0010 H         1 PSM1        0.0000
     80 C1F        15.8600    5.9840   -0.3610 C.2       1 PSM1        0.0000
     81 OF         16.3050    6.6530   -1.2810 O.2       1 PSM1        0.0000
     82 C2F        14.7990    4.9490   -0.5600 C.3       1 PSM1        0.0000
     83 H2F        13.8250    5.4350   -0.3470 H         1 PSM1        0.0000
     84 H2G        14.9280    4.1240    0.1710 H         1 PSM1        0.0000
     85 C3F        14.7490    4.3880   -1.9930 C.3       1 PSM1        0.0000
     86 H3F        15.5450    3.6220   -2.1190 H         1 PSM1        0.0000
     87 H3G        14.9320    5.1920   -2.7420 H         1 PSM1        0.0000
     88 C4F        13.3680    3.7860   -2.2720 C.3       1 PSM1        0.0000
     89 H4F        12.6120    4.6040   -2.2190 H         1 PSM1        0.0000
     90 H4G        13.1130    3.0460   -1.4820 H         1 PSM1        0.0000
     91 C5F        13.2670    3.1190   -3.6420 C.3       1 PSM1        0.0000
     92 H5F        13.9510    2.2430   -3.6790 H         1 PSM1        0.0000
     93 H5G        13.5890    3.8390   -4.4280 H         1 PSM1        0.0000
     94 C6F        11.8320    2.6710   -3.9300 C.3       1 PSM1        0.0000
     95 H6F        11.1560    3.5570   -3.9010 H         1 PSM1        0.0000
     96 H6G        11.5020    1.9690   -3.1320 H         1 PSM1        0.0000
     97 C7F        11.6980    1.9860   -5.2890 C.3       1 PSM1        0.0000
     98 H7F        12.3900    1.1150   -5.3300 H         1 PSM1        0.0000
     99 H7G        12.0000    2.6970   -6.0920 H         1 PSM1        0.0000
    100 C8F        10.2690    1.5050   -5.5510 C.3       1 PSM1        0.0000
    101 H8F         9.5740    2.3740   -5.5160 H         1 PSM1        0.0000
    102 H8G         9.9670    0.7970   -4.7470 H         1 PSM1        0.0000
    103 C9F        10.1520    0.8120   -6.9090 C.3       1 PSM1        0.0000
    104 H9F        10.8700   -0.0390   -6.9470 H         1 PSM1        0.0000
    105 H9G        10.4390    1.5320   -7.7090 H         1 PSM1        0.0000
    106 C10F        8.7430    0.2850   -7.1920 C.3       1 PSM1        0.0000
    107 H10F        8.0160    1.1270   -7.1390 H         1 PSM1        0.0000
    108 H10G        8.4610   -0.4560   -6.4110 H         1 PSM1        0.0000
    109 C11F        8.6620   -0.3700   -8.5740 C.3       1 PSM1        0.0000
    110 H11F        9.4040   -1.1990   -8.6290 H         1 PSM1        0.0000
    111 H11G        8.9400    0.3840   -9.3450 H         1 PSM1        0.0000
    112 C12F        7.2690   -0.9190   -8.8880 C.3       1 PSM1        0.0000
    113 H12F        6.5240   -0.0970   -8.7920 H         1 PSM1        0.0000
    114 H12G        7.0070   -1.7040   -8.1440 H         1 PSM1        0.0000
    115 C13F        7.1840   -1.5080  -10.3010 C.3       1 PSM1        0.0000
    116 H13F        7.9260   -2.3310  -10.4030 H         1 PSM1        0.0000
    117 H13G        7.4510   -0.7180  -11.0390 H         1 PSM1        0.0000
    118 C14F        5.7830   -2.0420  -10.6180 C.3       1 PSM1        0.0000
    119 H14F        5.0430   -1.2220  -10.4750 H         1 PSM1        0.0000
    120 H14G        5.5320   -2.8530   -9.8970 H         1 PSM1        0.0000
    121 C15F        5.6580   -2.5800  -12.0470 C.3       1 PSM1        0.0000
    122 H15F        6.4000   -3.3990  -12.1910 H         1 PSM1        0.0000
    123 H15G        5.9170   -1.7650  -12.7610 H         1 PSM1        0.0000
    124 C16F        4.2560   -3.1030  -12.3640 C.3       1 PSM1        0.0000
    125 H16F        3.5040   -2.2930  -12.2380 H         1 PSM1        0.0000
    126 H16G        3.9900   -3.9360  -11.6780 H         1 PSM1        0.0000
    127 H16H        4.2020   -3.4750  -13.4090 H         1 PSM1        0.0000
@<TRIPOS>BOND
     1  127  124 1 
     2  123  121 1 
     3  124  125 1 
     4  124  121 1 
     5  124  126 1 
     6  122  121 1 
     7  121  118 1 
     8  117  115 1 
     9  118  119 1 
    10  118  115 1 
    11  118  120 1 
    12  116  115 1 
    13  115  112 1 
    14  111  109 1 
    15  112  113 1 
    16  112  109 1 
    17  112  114 1 
    18  110  109 1 
    19  109  106 1 
    20  105  103 1 
    21  106  107 1 
    22  106  103 1 
    23  106  108 1 
    24  104  103 1 
    25  103  100 1 
    26   99   97 1 
    27  100  101 1 
    28  100   97 1 
    29  100  102 1 
    30   98   97 1 
    31   97   94 1 
    32   93   91 1 
    33   94   95 1 
    34   94   91 1 
    35   94   96 1 
    36   92   91 1 
    37   91   88 1 
    38    5    2 1 
    39    3    2 1 
    40    4    2 1 
    41   87   85 1 
    42    2    1 1 
    43   88   89 1 
    44   88   85 1 
    45   88   90 1 
    46   19   17 1 
    47   86   85 1 
    48   85   82 1 
    49   18   17 1 
    50   15   14 1 
    51   17   14 1 
    52   17   24 1 
    53   81   80 2 
    54   11   10 1 
    55    1   14 1 
    56    1   10 1 
    57    1    6 1 
    58   45   43 1 
    59   14   16 1 
    60   63   61 1 
    61   65   64 1 
    62   69   67 1 
    63   51   49 1 
    64   77   76 1 
    65   71   70 1 
    66   75   73 1 
    67   59   58 1 
    68   57   55 1 
    69   39   38 1 
    70   53   52 1 
    71   12   10 1 
    72   10   13 1 
    73   47   46 1 
    74   82   80 1 
    75   82   83 1 
    76   82   84 1 
    77    8    6 1 
    78    7    6 1 
    79   41   40 1 
    80   80   28 am
    81    6    9 1 
    82   24   20 1 
    83   33   32 1 
    84   26   25 1 
    85   64   61 1 
    86   64   67 1 
    87   64   66 1 
    88   61   58 1 
    89   61   62 1 
    90   67   70 1 
    91   67   68 1 
    92   70   73 1 
    93   70   72 1 
    94   73   76 1 
    95   73   74 1 
    96   76   79 1 
    97   76   78 1 
    98   58   55 1 
    99   58   60 1 
   100   55   52 1 
   101   55   56 1 
   102   49   52 1 
   103   49   46 1 
   104   49   50 1 
   105   43   46 1 
   106   43   40 1 
   107   43   44 1 
   108   52   54 1 
   109   38   40 1 
   110   38   36 2 
   111   46   48 1 
   112   40   42 1 
   113   28   30 1 
   114   28   29 1 
   115   21   20 2 
   116   32   36 1 
   117   32   30 1 
   118   32   34 1 
   119   25   27 1 
   120   25   30 1 
   121   25   23 1 
   122   20   23 1 
   123   20   22 1 
   124   36   37 1 
   125   30   31 1 
   126   34   35 1 
