@<TRIPOS>MOLECULE
C:\Users\Praveer\PycharmProjects\pdb_to_mol2_converter\data\pdb\psmt.pdb
   18    18     0     0     0
SMALL
GASTEIGER

@<TRIPOS>ATOM
      1 S1          1.8290    0.0290    0.0250 S.3       1 PSM1        0.0000
      2 N2          2.0300    1.6620   -0.0220 N.3       1 PSM1        0.0000
      3 H21         1.6590    2.0610   -0.8780 H         1 PSM1        0.0000
      4 H22         1.6170    2.1160    0.7860 H         1 PSM1        0.0000
      5 O11         2.2730   -0.4430    1.3060 O.3       1 PSM1        0.0000
      6 O12         2.3570   -0.5250   -1.1910 O.3       1 PSM1        0.0000
      7 O3          0.2280   -0.0450   -0.0270 O.3       1 PSM1        0.0000
      8 CZ         -0.2750   -1.3400   -0.0170 C.ar      1 PSM1        0.0000
      9 CE1        -0.5740   -1.9760    1.2000 C.ar      1 PSM1        0.0000
     10 HE1        -0.3540   -1.4700    2.1270 H         1 PSM1        0.0000
     11 CE2        -0.5730   -1.9890   -1.2260 C.ar      1 PSM1        0.0000
     12 HE2        -0.3520   -1.4930   -2.1590 H         1 PSM1        0.0000
     13 CD1        -1.1280   -3.2640    1.2080 C.ar      1 PSM1        0.0000
     14 HD1        -1.3430   -3.7560    2.1460 H         1 PSM1        0.0000
     15 CD2        -1.1270   -3.2770   -1.2220 C.ar      1 PSM1        0.0000
     16 HD2        -1.3420   -3.7790   -2.1550 H         1 PSM1        0.0000
     17 CG         -1.4020   -3.9130   -0.0030 C.ar      1 PSM1        0.0000
     18 HG         -1.8240   -4.9080    0.0020 H         1 PSM1        0.0000
@<TRIPOS>BOND
     1   12   11 1 
     2   16   15 1 
     3   11   15 ar
     4   11    8 ar
     5   15   17 ar
     6    6    1 1 
     7    3    2 1 
     8    7    8 1 
     9    7    1 1 
    10    2    1 1 
    11    2    4 1 
    12    8    9 ar
    13   17   18 1 
    14   17   13 ar
    15    1    5 1 
    16    9   13 ar
    17    9   10 1 
    18   13   14 1 
