@<TRIPOS>MOLECULE
C:\Users\Praveer\PycharmProjects\pdb_to_mol2_converter\data\pdb\psna.pdb
   14    13     0     0     0
SMALL
GASTEIGER

@<TRIPOS>ATOM
      1 S           2.1300    1.7560    0.0000 S.3       1 PSN1        0.0000
      2 O1          3.5670    1.5680   -0.0000 O.3       1 PSN1        0.0000
      3 O2          1.6080    2.3420    1.2180 O.3       1 PSN1        0.0000
      4 O3          1.6080    2.3420   -1.2180 O.3       1 PSN1        0.0000
      5 C1          1.4830    0.0680    0.0000 C.3       1 PSN1        0.0000
      6 H11         1.8830   -0.4330    0.9030 H         1 PSN1        0.0000
      7 H12         1.8820   -0.4340   -0.9020 H         1 PSN1        0.0000
      8 C2         -0.0600    0.0340    0.0010 C.3       1 PSN1        0.0000
      9 H21        -0.4350    0.5780   -0.8970 H         1 PSN1        0.0000
     10 H22        -0.4340    0.5790    0.8980 H         1 PSN1        0.0000
     11 C3         -0.6250   -1.3880    0.0020 C.3       1 PSN1        0.0000
     12 H31        -0.2780   -1.9370    0.9030 H         1 PSN1        0.0000
     13 H32        -0.2790   -1.9380   -0.9000 H         1 PSN1        0.0000
     14 H33        -1.7350   -1.3660    0.0020 H         1 PSN1        0.0000
@<TRIPOS>BOND
     1    4    1 1 
     2    7    5 1 
     3   13   11 1 
     4    9    8 1 
     5    1    2 1 
     6    1    5 1 
     7    1    3 1 
     8    5    8 1 
     9    5    6 1 
    10    8   11 1 
    11    8   10 1 
    12   11   14 1 
    13   11   12 1 
