@<TRIPOS>MOLECULE
C:\Users\Praveer\PycharmProjects\pdb_to_mol2_converter\data\pdb\pspg.pdb
  121   120     0     0     0
SMALL
GASTEIGER

@<TRIPOS>ATOM
      1 C13         3.5910    1.5000    0.2700 C.3       1 PSP1        0.0000
      2 H13A        4.1280    0.8620   -0.4640 H         1 PSP1        0.0000
      3 H13B        3.9190    2.5520    0.1230 H         1 PSP1        0.0000
      4 OC3         3.9180    1.0850    1.6000 O.3       1 PSP1        0.0000
      5 HO3         3.2490    1.4750    2.1750 H         1 PSP1        0.0000
      6 C12         2.0680    1.4070    0.0130 C.3       1 PSP1        0.0000
      7 H12A        1.5550    2.0020    0.8010 H         1 PSP1        0.0000
      8 OC2         1.7340    1.9720   -1.2460 O.3       1 PSP1        0.0000
      9 HO2         0.8290    1.6510   -1.3690 H         1 PSP1        0.0000
     10 C11         1.5190   -0.0390    0.0430 C.3       1 PSP1        0.0000
     11 H11A        1.9750   -0.5990    0.8890 H         1 PSP1        0.0000
     12 H11B        1.8550   -0.5610   -0.8800 H         1 PSP1        0.0000
     13 P          -0.6920    0.0370    1.4720 P.3       1 PSP1        0.0000
     14 O13        -2.1150   -0.2750    1.2360 O.2       1 PSP1        0.0000
     15 O14        -0.3620    1.3290    2.1160 O.3       1 PSP1        0.0000
     16 O11        -0.0230   -1.1350    2.3110 O.3       1 PSP1        0.0000
     17 O12         0.0900   -0.0460    0.0890 O.3       1 PSP1        0.0000
     18 C1          0.8900   -0.8150    3.3670 C.3       1 PSP1        0.0000
     19 HA          0.3520   -0.3780    4.2390 H         1 PSP1        0.0000
     20 HB          1.6520   -0.0750    3.0290 H         1 PSP1        0.0000
     21 C2          1.6450   -2.0860    3.8270 C.3       1 PSP1        0.0000
     22 HS          1.8210   -2.6980    2.9090 H         1 PSP1        0.0000
     23 O21         0.8090   -2.7990    4.7600 O.3       1 PSP1        0.0000
     24 C21         1.1390   -4.0590    4.9560 C.2       1 PSP1        0.0000
     25 O22         2.0850   -4.6410    4.4600 O.2       1 PSP1        0.0000
     26 C22         0.1090   -4.7120    5.8800 C.3       1 PSP1        0.0000
     27 H2R         0.3360   -5.7950    5.9280 H         1 PSP1        0.0000
     28 H2S        -0.8830   -4.5880    5.3950 H         1 PSP1        0.0000
     29 C3          3.0390   -1.7370    4.4330 C.3       1 PSP1        0.0000
     30 HX          3.6390   -1.2380    3.6380 H         1 PSP1        0.0000
     31 HY          3.5530   -2.6880    4.7030 H         1 PSP1        0.0000
     32 O31         2.9010   -0.8550    5.5670 O.3       1 PSP1        0.0000
     33 C31         3.9810   -0.7840    6.3360 C.2       1 PSP1        0.0000
     34 O32         5.0330   -1.3580    6.1330 O.2       1 PSP1        0.0000
     35 C32         3.7010    0.1550    7.5110 C.3       1 PSP1        0.0000
     36 H2X         2.6090    0.3350    7.5860 H         1 PSP1        0.0000
     37 H2Y         4.2070    1.1170    7.2900 H         1 PSP1        0.0000
     38 C23         0.0660   -4.0870    7.2950 C.3       1 PSP1        0.0000
     39 H3R        -0.8140   -4.5120    7.8310 H         1 PSP1        0.0000
     40 H3S        -0.1010   -2.9880    7.2130 H         1 PSP1        0.0000
     41 C24         1.3140   -4.3480    8.1570 C.3       1 PSP1        0.0000
     42 H4R         1.1720   -3.8470    9.1420 H         1 PSP1        0.0000
     43 H4S         2.2030   -3.8870    7.6700 H         1 PSP1        0.0000
     44 C25         1.6010   -5.8370    8.4080 C.3       1 PSP1        0.0000
     45 H5R         1.9270   -6.2920    7.4440 H         1 PSP1        0.0000
     46 H5S         0.6690   -6.3530    8.7240 H         1 PSP1        0.0000
     47 C26         2.7140   -6.0750    9.4470 C.3       1 PSP1        0.0000
     48 H6R         3.4460   -5.2370    9.3890 H         1 PSP1        0.0000
     49 H6S         3.2600   -7.0080    9.1770 H         1 PSP1        0.0000
     50 C27         2.2260   -6.2250   10.9030 C.3       1 PSP1        0.0000
     51 H7R         1.6350   -5.3300   11.1920 H         1 PSP1        0.0000
     52 H7S         3.1280   -6.2610   11.5560 H         1 PSP1        0.0000
     53 C28         1.4050   -7.5080   11.1580 C.3       1 PSP1        0.0000
     54 H8R         1.9820   -8.3550   10.7230 H         1 PSP1        0.0000
     55 H8S         0.4480   -7.4440   10.5960 H         1 PSP1        0.0000
     56 C29         1.1210   -7.7450   12.6240 C.2       1 PSP1        0.0000
     57 H9R         1.0160   -6.8310   13.2300 H         1 PSP1        0.0000
     58 C210        1.0270   -8.9460   13.2310 C.2       1 PSP1        0.0000
     59 H10R        0.8340   -8.9820   14.3160 H         1 PSP1        0.0000
     60 C211        1.1290  -10.2930   12.5520 C.3       1 PSP1        0.0000
     61 H11R        2.0670  -10.8050   12.8640 H         1 PSP1        0.0000
     62 H11S        1.1770  -10.1850   11.4440 H         1 PSP1        0.0000
     63 C212       -0.0550  -11.2380   12.8550 C.3       1 PSP1        0.0000
     64 H12R       -1.0160  -10.6770   12.7980 H         1 PSP1        0.0000
     65 H12S        0.0480  -11.6360   13.8890 H         1 PSP1        0.0000
     66 C213       -0.1230  -12.3970   11.8440 C.3       1 PSP1        0.0000
     67 H13R        0.8700  -12.8910   11.7760 H         1 PSP1        0.0000
     68 H13S       -0.3350  -11.9560   10.8410 H         1 PSP1        0.0000
     69 C214       -1.2140  -13.4410   12.1450 C.3       1 PSP1        0.0000
     70 H14R       -1.3260  -14.0960   11.2480 H         1 PSP1        0.0000
     71 H14S       -2.1830  -12.9160   12.3020 H         1 PSP1        0.0000
     72 C215       -0.9250  -14.3480   13.3540 C.3       1 PSP1        0.0000
     73 H15R       -1.7920  -15.0380   13.4800 H         1 PSP1        0.0000
     74 H15S       -0.8620  -13.7250   14.2750 H         1 PSP1        0.0000
     75 C216        0.3510  -15.1900   13.2270 C.3       1 PSP1        0.0000
     76 H16R        1.2520  -14.5400   13.2180 H         1 PSP1        0.0000
     77 H16S        0.3360  -15.7810   12.2860 H         1 PSP1        0.0000
     78 H16T        0.4410  -15.8950   14.0820 H         1 PSP1        0.0000
     79 C33         4.2280   -0.4140    8.8480 C.3       1 PSP1        0.0000
     80 H3X         4.0900    0.3590    9.6370 H         1 PSP1        0.0000
     81 H3Y         5.3180   -0.6220    8.7790 H         1 PSP1        0.0000
     82 C34         3.4800   -1.6830    9.2800 C.3       1 PSP1        0.0000
     83 H4X         3.7650   -2.5210    8.6050 H         1 PSP1        0.0000
     84 H4Y         2.3870   -1.5090    9.1620 H         1 PSP1        0.0000
     85 C35         3.7380   -2.1080   10.7340 C.3       1 PSP1        0.0000
     86 H5X         3.0880   -2.9870   10.9410 H         1 PSP1        0.0000
     87 H5Y         3.4220   -1.2880   11.4160 H         1 PSP1        0.0000
     88 C36         5.1990   -2.4790   11.0290 C.3       1 PSP1        0.0000
     89 H6X         5.8460   -1.5950   10.8340 H         1 PSP1        0.0000
     90 H6Y         5.5170   -3.2850   10.3300 H         1 PSP1        0.0000
     91 C37         5.4390   -2.9480   12.4750 C.3       1 PSP1        0.0000
     92 H7X         5.1590   -2.1300   13.1750 H         1 PSP1        0.0000
     93 H7Y         6.5290   -3.1410   12.6000 H         1 PSP1        0.0000
     94 C38         4.6690   -4.2250   12.8410 C.3       1 PSP1        0.0000
     95 H8X         4.9180   -5.0120   12.0930 H         1 PSP1        0.0000
     96 H8Y         3.5740   -4.0320   12.7830 H         1 PSP1        0.0000
     97 C39         4.9940   -4.7560   14.2450 C.3       1 PSP1        0.0000
     98 H9X         4.7060   -3.9920   15.0020 H         1 PSP1        0.0000
     99 H9Y         6.0920   -4.9230   14.3260 H         1 PSP1        0.0000
    100 C310        4.2640   -6.0750   14.5450 C.3       1 PSP1        0.0000
    101 H10X        4.5500   -6.8210   13.7700 H         1 PSP1        0.0000
    102 H10Y        3.1660   -5.9130   14.4650 H         1 PSP1        0.0000
    103 C311        4.5880   -6.6350   15.9380 C.3       1 PSP1        0.0000
    104 H11X        4.2650   -5.8880   16.6980 H         1 PSP1        0.0000
    105 H11Y        5.6890   -6.7640   16.0400 H         1 PSP1        0.0000
    106 C312        3.8960   -7.9740   16.2420 C.3       1 PSP1        0.0000
    107 H12X        2.8030   -7.8710   16.0620 H         1 PSP1        0.0000
    108 H12Y        4.0400   -8.2100   17.3220 H         1 PSP1        0.0000
    109 C313        4.4350   -9.1540   15.4180 C.3       1 PSP1        0.0000
    110 H13X        5.5250   -9.2720   15.6120 H         1 PSP1        0.0000
    111 H13Y        4.3040   -8.9430   14.3340 H         1 PSP1        0.0000
    112 C314        3.7180  -10.4710   15.7470 C.3       1 PSP1        0.0000
    113 H14X        2.6270  -10.3400   15.5660 H         1 PSP1        0.0000
    114 H14Y        3.8570  -10.7080   16.8260 H         1 PSP1        0.0000
    115 C315        4.2180  -11.6510   14.9030 C.3       1 PSP1        0.0000
    116 H15X        5.2900  -11.8380   15.1440 H         1 PSP1        0.0000
    117 H15Y        4.1650  -11.3700   13.8260 H         1 PSP1        0.0000
    118 C316        3.4130  -12.9350   15.1250 C.3       1 PSP1        0.0000
    119 H16X        2.3520  -12.7830   14.8290 H         1 PSP1        0.0000
    120 H16Y        3.4390  -13.2290   16.1970 H         1 PSP1        0.0000
    121 H16Z        3.8300  -13.7700   14.5210 H         1 PSP1        0.0000
@<TRIPOS>BOND
     1    9    8 1 
     2    8    6 1 
     3   12   10 1 
     4    2    1 1 
     5    6   10 1 
     6    6    1 1 
     7    6    7 1 
     8   10   17 1 
     9   10   11 1 
    10   17   13 1 
    11    3    1 1 
    12    1    4 1 
    13   14   13 2 
    14   13   15 1 
    15   13   16 1 
    16    4    5 1 
    17   16   18 1 
    18   22   21 1 
    19   20   18 1 
    20   18   21 1 
    21   18   19 1 
    22   30   29 1 
    23   21   29 1 
    24   21   23 1 
    25   29   31 1 
    26   29   32 1 
    27   25   24 2 
    28   23   24 1 
    29   24   26 1 
    30   28   26 1 
    31   32   33 1 
    32   26   27 1 
    33   26   38 1 
    34   34   33 2 
    35   33   35 1 
    36   40   38 1 
    37   37   35 1 
    38   38   39 1 
    39   38   41 1 
    40   45   44 1 
    41   35   36 1 
    42   35   79 1 
    43   43   41 1 
    44   41   44 1 
    45   41   42 1 
    46   44   46 1 
    47   44   47 1 
    48   83   82 1 
    49   81   79 1 
    50   79   82 1 
    51   79   80 1 
    52   84   82 1 
    53   49   47 1 
    54   82   85 1 
    55   48   47 1 
    56   47   50 1 
    57   90   88 1 
    58   55   53 1 
    59   54   53 1 
    60   85   86 1 
    61   85   88 1 
    62   85   87 1 
    63   89   88 1 
    64   68   66 1 
    65   50   53 1 
    66   50   51 1 
    67   50   52 1 
    68   88   91 1 
    69   53   56 1 
    70   70   69 1 
    71   62   60 1 
    72   67   66 1 
    73   66   69 1 
    74   66   63 1 
    75   95   94 1 
    76   69   71 1 
    77   69   72 1 
    78   77   75 1 
    79   91   93 1 
    80   91   94 1 
    81   91   92 1 
    82   60   63 1 
    83   60   61 1 
    84   60   58 1 
    85   56   57 1 
    86   56   58 2 
    87   96   94 1 
    88   64   63 1 
    89   94   97 1 
    90   63   65 1 
    91   76   75 1 
    92   75   72 1 
    93   75   78 1 
    94   58   59 1 
    95   72   73 1 
    96   72   74 1 
    97  101  100 1 
    98  117  115 1 
    99   97   99 1 
   100   97  100 1 
   101   97   98 1 
   102  111  109 1 
   103  102  100 1 
   104  121  118 1 
   105  100  103 1 
   106  119  118 1 
   107  115  118 1 
   108  115  116 1 
   109  115  112 1 
   110  118  120 1 
   111  109  110 1 
   112  109  112 1 
   113  109  106 1 
   114  113  112 1 
   115  112  114 1 
   116  103  105 1 
   117  103  106 1 
   118  103  104 1 
   119  107  106 1 
   120  106  108 1 
