@<TRIPOS>MOLECULE
C:\Users\Praveer\PycharmProjects\pdb_to_mol2_converter\data\pdb\ptid.pdb
   14    15     0     0     0
SMALL
GASTEIGER

@<TRIPOS>ATOM
      1 N1          2.2190    1.2010    0.0000 N.2       1 PTI1        0.0000
      2 C2          1.5130    2.3610    0.0000 C.2       1 PTI1        0.0000
      3 H2          2.0840    3.2940    0.0000 H         1 PTI1        0.0000
      4 N3          0.1470    2.4630   -0.0000 N.2       1 PTI1        0.0000
      5 C4         -0.5310    1.3070   -0.0000 C.2       1 PTI1        0.0000
      6 H4         -1.6140    1.3660   -0.0000 H         1 PTI1        0.0000
      7 C5          0.0340    0.0130   -0.0000 C.3       1 PTI1        0.0000
      8 N6         -0.6870   -1.1260   -0.0000 N.2       1 PTI1        0.0000
      9 C7          0.0220   -2.2620   -0.0000 C.2       1 PTI1        0.0000
     10 H7         -0.5250   -3.1960   -0.0000 H         1 PTI1        0.0000
     11 C8          1.4410   -2.2840    0.0000 C.2       1 PTI1        0.0000
     12 H8          1.9640   -3.2320    0.0000 H         1 PTI1        0.0000
     13 N9          2.1780   -1.1690    0.0000 N.2       1 PTI1        0.0000
     14 C10         1.5060    0.0360    0.0000 C.2       1 PTI1        0.0000
@<TRIPOS>BOND
     1    1    2 2 
     2    1   14 2 
     3    2    3 1 
     4    2    4 1 
     5    4    5 2 
     6    5    6 1 
     7    5    7 1 
     8    7    8 1 
     9    7   14 1 
    10    8    9 2 
    11    9   10 1 
    12    9   11 1 
    13   11   12 1 
    14   11   13 2 
    15   13   14 1 
