@<TRIPOS>MOLECULE
C:\Users\Praveer\PycharmProjects\pdb_to_mol2_converter\data\pdb\pur7.pdb
   13    14     0     0     0
SMALL
GASTEIGER

@<TRIPOS>ATOM
      1 C5         -0.4110    1.2060   -0.0000 C.ar      1 PUR1        0.0000
      2 N7         -0.0030   -0.1050   -0.0000 N.pl3     1 PUR1        0.0000
      3 H7         -0.5850   -0.9270   -0.0000 H         1 PUR1        0.0000
      4 C8          1.3720   -0.0570   -0.0000 C.3       1 PUR1        0.0000
      5 H8          1.9960   -0.9540    0.0000 H         1 PUR1        0.0000
      6 N9          1.8480    1.1780   -0.0000 N.2       1 PUR1        0.0000
      7 N1         -1.6880    3.2230   -0.0000 N.ar      1 PUR1        0.0000
      8 C2         -0.4830    3.8900   -0.0000 C.ar      1 PUR1        0.0000
      9 H2         -0.5170    4.9820   -0.0000 H         1 PUR1        0.0000
     10 N3          0.7570    3.3160   -0.0000 N.ar      1 PUR1        0.0000
     11 C4          0.7470    1.9820   -0.0000 C.ar      1 PUR1        0.0000
     12 C6         -1.6280    1.8840   -0.0000 C.ar      1 PUR1        0.0000
     13 H6         -2.5680    1.3480   -0.0000 H         1 PUR1        0.0000
@<TRIPOS>BOND
     1    1    2 1 
     2    1   11 ar
     3    1   12 ar
     4    2    3 1 
     5    2    4 1 
     6    4    5 1 
     7    4    6 1 
     8    6   11 2 
     9    7    8 ar
    10    7   12 ar
    11    8    9 1 
    12    8   10 ar
    13   10   11 ar
    14   12   13 1 
