@<TRIPOS>MOLECULE
C:\Users\Praveer\PycharmProjects\pdb_to_mol2_converter\data\pdb\pur9.pdb
   13    14     0     0     0
SMALL
GASTEIGER

@<TRIPOS>ATOM
      1 C5         -0.3230    1.2320   -0.0000 C.ar      1 PUR1        0.0000
      2 N7          0.0100   -0.1070   -0.0000 N.ar      1 PUR1        0.0000
      3 C8          1.3360   -0.0890   -0.0000 C.ar      1 PUR1        0.0000
      4 H8          1.9640   -0.9840    0.0000 H         1 PUR1        0.0000
      5 N9          1.8640    1.1810   -0.0000 N.ar      1 PUR1        0.0000
      6 H9          2.8210    1.4800   -0.0000 H         1 PUR1        0.0000
      7 N1         -1.5890    3.2530   -0.0000 N.2       1 PUR1        0.0000
      8 C2         -0.3950    3.9390   -0.0000 C.2       1 PUR1        0.0000
      9 H2         -0.4520    5.0310   -0.0000 H         1 PUR1        0.0000
     10 N3          0.8520    3.3760   -0.0000 N.pl3     1 PUR1        0.0000
     11 C4          0.8170    2.0410   -0.0000 C.ar      1 PUR1        0.0000
     12 C6         -1.5380    1.9090   -0.0000 C.3       1 PUR1        0.0000
     13 H6         -2.4640    1.3520   -0.0000 H         1 PUR1        0.0000
@<TRIPOS>BOND
     1    1    2 ar
     2    1   11 ar
     3    1   12 1 
     4    2    3 ar
     5    3    4 1 
     6    3    5 ar
     7    5    6 1 
     8    5   11 ar
     9    7    8 2 
    10    7   12 1 
    11    8    9 1 
    12    8   10 1 
    13   10   11 1 
    14   12   13 1 
