@<TRIPOS>MOLECULE
C:\Users\Praveer\PycharmProjects\pdb_to_mol2_converter\data\pdb\pvcl2.pdb
  240   239     0     0     0
SMALL
GASTEIGER

@<TRIPOS>ATOM
      1 C3          1.5670   -0.0170   -0.0570 C.3       1 PVC1        0.0000
      2 HG31        1.8960   -0.5210    0.8830 H         1 PVC1        0.0000
      3 HG32        1.9150   -0.6250   -0.9240 H         1 PVC1        0.0000
      4 P3          3.6620    1.5170   -0.0460 P.3       1 PVC1        0.0000
      5 OP33        4.1540    0.9450    1.2230 O.3       1 PVC1        0.0000
      6 OP34        3.9870    2.9310   -0.3400 O.2       1 PVC1        0.0000
      7 OP31        2.0870    1.3210   -0.1410 O.3       1 PVC1        0.0000
      8 OP32        4.1780    0.6130   -1.2530 O.3       1 PVC1        0.0000
      9 C31         4.3990    1.2410   -2.5210 C.3       1 PVC1        0.0000
     10 H31J        5.3050    1.8870   -2.4640 H         1 PVC1        0.0000
     11 H31K        3.5430    1.8960   -2.8070 H         1 PVC1        0.0000
     12 C2          0.0160   -0.0190   -0.0660 C.3       1 PVC1        0.0000
     13 HG22       -0.3400    0.4050    0.9000 H         1 PVC1        0.0000
     14 OG12       -0.3810    0.8410   -1.1240 O.3       1 PVC1        0.0000
     15 HO12        0.3320    1.4940   -1.0750 H         1 PVC1        0.0000
     16 C1         -0.5700   -1.4490   -0.2450 C.3       1 PVC1        0.0000
     17 HG11        0.0640   -2.1520    0.3430 H         1 PVC1        0.0000
     18 HG12       -0.4500   -1.7370   -1.3120 H         1 PVC1        0.0000
     19 P1         -2.4020   -1.8270    1.6140 P.3       1 PVC1        0.0000
     20 OP13       -2.1530   -0.6240    2.4360 O.3       1 PVC1        0.0000
     21 OP14       -3.7750   -2.3800    1.6210 O.2       1 PVC1        0.0000
     22 OP11       -1.9560   -1.5530    0.1130 O.3       1 PVC1        0.0000
     23 OP12       -1.3790   -2.9570    2.0670 O.3       1 PVC1        0.0000
     24 C11        -1.6940   -4.3450    2.0020 C.3       1 PVC1        0.0000
     25 H11J       -2.7310   -4.5540    2.3550 H         1 PVC1        0.0000
     26 H11K       -1.0010   -4.8750    2.6920 H         1 PVC1        0.0000
     27 C12        -1.4970   -4.9440    0.5830 C.3       1 PVC1        0.0000
     28 H12J       -0.5270   -4.5580    0.1910 H         1 PVC1        0.0000
     29 O12        -2.6160   -4.5510   -0.2240 O.3       1 PVC1        0.0000
     30 CA1        -2.3750   -4.2550   -1.4860 C.2       1 PVC1        0.0000
     31 OA1        -1.3200   -4.4250   -2.0790 O.2       1 PVC1        0.0000
     32 CA2        -3.6730   -3.7090   -2.1000 C.3       1 PVC1        0.0000
     33 H2A        -3.7240   -2.6270   -1.8600 H         1 PVC1        0.0000
     34 H2B        -4.5160   -4.2120   -1.5810 H         1 PVC1        0.0000
     35 C13        -1.4380   -6.4940    0.6610 C.3       1 PVC1        0.0000
     36 H13J       -2.4290   -6.8390    1.0330 H         1 PVC1        0.0000
     37 H13K       -0.6820   -6.8030    1.4190 H         1 PVC1        0.0000
     38 O13        -1.1970   -7.0950   -0.6270 O.3       1 PVC1        0.0000
     39 CB1         0.0810   -7.1110   -0.9880 C.2       1 PVC1        0.0000
     40 OB1         1.0240   -6.8170   -0.2790 O.2       1 PVC1        0.0000
     41 CB2         0.1770   -7.5700   -2.4380 C.3       1 PVC1        0.0000
     42 H2D         0.0370   -6.6650   -3.0680 H         1 PVC1        0.0000
     43 H2E        -0.6500   -8.2770   -2.6500 H         1 PVC1        0.0000
     44 C32         4.6270    0.1860   -3.6420 C.3       1 PVC1        0.0000
     45 H32J        4.9080    0.7350   -4.5720 H         1 PVC1        0.0000
     46 O32         3.4310   -0.6000   -3.8420 O.3       1 PVC1        0.0000
     47 CC1         2.4670    0.0910   -4.4470 C.2       1 PVC1        0.0000
     48 OC1         2.6320    1.1080   -5.0870 O.2       1 PVC1        0.0000
     49 CC2         1.1180   -0.5860   -4.1840 C.3       1 PVC1        0.0000
     50 H2R         1.1120   -0.8660   -3.1070 H         1 PVC1        0.0000
     51 H2S         1.0450   -1.5130   -4.7820 H         1 PVC1        0.0000
     52 C33         5.8290   -0.7450   -3.3200 C.3       1 PVC1        0.0000
     53 H33J        5.5080   -1.4820   -2.5490 H         1 PVC1        0.0000
     54 H33K        6.6170   -0.0880   -2.8740 H         1 PVC1        0.0000
     55 O33         6.3000   -1.4040   -4.5200 O.3       1 PVC1        0.0000
     56 CD1         7.5290   -1.9100   -4.4240 C.2       1 PVC1        0.0000
     57 OD1         8.2210   -1.8930   -3.4340 O.2       1 PVC1        0.0000
     58 CD2         7.9460   -2.4840   -5.7920 C.3       1 PVC1        0.0000
     59 H2X         8.3440   -1.6480   -6.4000 H         1 PVC1        0.0000
     60 H2Y         7.0460   -2.8710   -6.2960 H         1 PVC1        0.0000
     61 CA3        -3.8070   -3.9440   -3.6260 C.3       1 PVC1        0.0000
     62 H3A        -4.8730   -4.1750   -3.8530 H         1 PVC1        0.0000
     63 H3B        -3.2070   -4.8280   -3.9340 H         1 PVC1        0.0000
     64 CA4        -3.4220   -2.7120   -4.4590 C.3       1 PVC1        0.0000
     65 H4A        -2.3910   -2.3930   -4.1840 H         1 PVC1        0.0000
     66 H4B        -4.0980   -1.8720   -4.1820 H         1 PVC1        0.0000
     67 CA5        -3.5130   -2.9350   -5.9830 C.3       1 PVC1        0.0000
     68 H5A        -3.2230   -1.9840   -6.4840 H         1 PVC1        0.0000
     69 H5B        -4.5690   -3.1500   -6.2580 H         1 PVC1        0.0000
     70 CA6        -2.6160   -4.0620   -6.5300 C.3       1 PVC1        0.0000
     71 H6A        -2.6380   -4.0400   -7.6420 H         1 PVC1        0.0000
     72 H6B        -3.0190   -5.0480   -6.2070 H         1 PVC1        0.0000
     73 CA7        -1.1690   -3.9370   -6.0470 C.3       1 PVC1        0.0000
     74 H7A        -1.1470   -4.0420   -4.9370 H         1 PVC1        0.0000
     75 H7B        -0.7840   -2.9240   -6.2920 H         1 PVC1        0.0000
     76 CA8        -0.1970   -4.9650   -6.6270 C.3       1 PVC1        0.0000
     77 H8A        -0.0290   -4.7520   -7.7060 H         1 PVC1        0.0000
     78 H8B        -0.6140   -5.9910   -6.5300 H         1 PVC1        0.0000
     79 CA9         1.1220   -4.8690   -5.8570 C.3       1 PVC1        0.0000
     80 H9A         0.9490   -5.2220   -4.8140 H         1 PVC1        0.0000
     81 H9B         1.3920   -3.7880   -5.7920 H         1 PVC1        0.0000
     82 CA10        2.2840   -5.6310   -6.5010 C.3       1 PVC1        0.0000
     83 H10A        2.4010   -5.2590   -7.5400 H         1 PVC1        0.0000
     84 H10B        2.0560   -6.7130   -6.5880 H         1 PVC1        0.0000
     85 CA11        3.4960   -5.3880   -5.6390 C.2       1 PVC1        0.0000
     86 H11A        3.4600   -5.8150   -4.6250 H         1 PVC1        0.0000
     87 CA12        4.5360   -4.6120   -5.9830 C.2       1 PVC1        0.0000
     88 H12A        5.3490   -4.4590   -5.2590 H         1 PVC1        0.0000
     89 CA13        4.7170   -3.9360   -7.3120 C.3       1 PVC1        0.0000
     90 H13A        4.2050   -4.4770   -8.1380 H         1 PVC1        0.0000
     91 H13B        5.7910   -3.9650   -7.5670 H         1 PVC1        0.0000
     92 CA14        4.2660   -2.4640   -7.3180 C.3       1 PVC1        0.0000
     93 H14A        4.6090   -1.9680   -6.3780 H         1 PVC1        0.0000
     94 H14B        3.1560   -2.4010   -7.3390 H         1 PVC1        0.0000
     95 CA15        4.8760   -1.6890   -8.4980 C.3       1 PVC1        0.0000
     96 H15A        5.9620   -1.9350   -8.5270 H         1 PVC1        0.0000
     97 H15B        4.8000   -0.5980   -8.3010 H         1 PVC1        0.0000
     98 CA16        4.2880   -2.0310   -9.8810 C.3       1 PVC1        0.0000
     99 H16A        4.2000   -3.1320  -10.0010 H         1 PVC1        0.0000
    100 H16B        5.0140   -1.6810  -10.6500 H         1 PVC1        0.0000
    101 CA17        2.9320   -1.3760  -10.1990 C.3       1 PVC1        0.0000
    102 H17A        2.1410   -1.8440   -9.5710 H         1 PVC1        0.0000
    103 H17B        2.6830   -1.5960  -11.2630 H         1 PVC1        0.0000
    104 CA18        2.8980    0.1400   -9.9890 C.3       1 PVC1        0.0000
    105 H18A        3.7670    0.6200  -10.4870 H         1 PVC1        0.0000
    106 H18B        2.9340    0.3880   -8.9060 H         1 PVC1        0.0000
    107 H18C        1.9620    0.5720  -10.4020 H         1 PVC1        0.0000
    108 CB3         1.5400   -8.2210   -2.7560 C.3       1 PVC1        0.0000
    109 H3D         1.6450   -9.1900   -2.2230 H         1 PVC1        0.0000
    110 H3E         2.3600   -7.5540   -2.3970 H         1 PVC1        0.0000
    111 CB4         1.7330   -8.4110   -4.2650 C.3       1 PVC1        0.0000
    112 H4D         2.7680   -8.7630   -4.4710 H         1 PVC1        0.0000
    113 H4E         1.6150   -7.4080   -4.7170 H         1 PVC1        0.0000
    114 CB5         0.7300   -9.3520   -4.9470 C.3       1 PVC1        0.0000
    115 H5D         0.9790   -9.4150   -6.0300 H         1 PVC1        0.0000
    116 H5E        -0.2960   -8.9260   -4.8720 H         1 PVC1        0.0000
    117 CB6         0.7300  -10.7610   -4.3480 C.3       1 PVC1        0.0000
    118 H6D         0.3860  -10.7020   -3.2910 H         1 PVC1        0.0000
    119 H6E         1.7650  -11.1680   -4.3450 H         1 PVC1        0.0000
    120 CB7        -0.1920  -11.7200   -5.1030 C.3       1 PVC1        0.0000
    121 H7D         0.2140  -11.9180   -6.1200 H         1 PVC1        0.0000
    122 H7E        -1.1900  -11.2390   -5.2220 H         1 PVC1        0.0000
    123 CB8        -0.3710  -13.0380   -4.3450 C.3       1 PVC1        0.0000
    124 H8D        -0.7070  -12.8070   -3.3080 H         1 PVC1        0.0000
    125 H8E         0.6050  -13.5670   -4.2760 H         1 PVC1        0.0000
    126 CB9        -1.4090  -13.9490   -5.0030 C.3       1 PVC1        0.0000
    127 H9D        -1.0420  -14.2470   -6.0100 H         1 PVC1        0.0000
    128 H9E        -2.3550  -13.3780   -5.1420 H         1 PVC1        0.0000
    129 CB10       -1.7060  -15.1910   -4.1550 C.3       1 PVC1        0.0000
    130 H10D       -1.9830  -14.8570   -3.1290 H         1 PVC1        0.0000
    131 H10E       -0.7880  -15.8120   -4.0700 H         1 PVC1        0.0000
    132 CB11       -2.8560  -16.0420   -4.7110 C.3       1 PVC1        0.0000
    133 H11D       -3.7650  -15.4070   -4.8090 H         1 PVC1        0.0000
    134 H11E       -3.0810  -16.8420   -3.9710 H         1 PVC1        0.0000
    135 CB12       -2.5410  -16.6840   -6.0710 C.3       1 PVC1        0.0000
    136 H12D       -1.6570  -17.3510   -5.9590 H         1 PVC1        0.0000
    137 H12E       -2.2730  -15.8890   -6.8010 H         1 PVC1        0.0000
    138 CB13       -3.7110  -17.4920   -6.6520 C.3       1 PVC1        0.0000
    139 H13D       -3.4180  -17.8670   -7.6590 H         1 PVC1        0.0000
    140 H13E       -4.5880  -16.8190   -6.7850 H         1 PVC1        0.0000
    141 CB14       -4.1190  -18.6870   -5.7800 C.3       1 PVC1        0.0000
    142 H14D       -4.4740  -18.3250   -4.7900 H         1 PVC1        0.0000
    143 H14E       -3.2270  -19.3290   -5.6060 H         1 PVC1        0.0000
    144 CB15       -5.2290  -19.5320   -6.4140 C.3       1 PVC1        0.0000
    145 H15D       -4.8820  -19.8980   -7.4070 H         1 PVC1        0.0000
    146 H15E       -6.1180  -18.8830   -6.5880 H         1 PVC1        0.0000
    147 CB16       -5.6370  -20.7260   -5.5480 C.3       1 PVC1        0.0000
    148 H16D       -6.0070  -20.3790   -4.5590 H         1 PVC1        0.0000
    149 H16E       -4.7660  -21.3960   -5.3790 H         1 PVC1        0.0000
    150 H16F       -6.4420  -21.3110   -6.0410 H         1 PVC1        0.0000
    151 CC3        -0.0950    0.3460   -4.4400 C.3       1 PVC1        0.0000
    152 H3R         0.1660    1.4090   -4.2460 H         1 PVC1        0.0000
    153 H3S        -0.8740    0.0730   -3.6860 H         1 PVC1        0.0000
    154 CC4        -0.7520    0.1930   -5.8230 C.3       1 PVC1        0.0000
    155 H4R        -1.7080    0.7640   -5.8180 H         1 PVC1        0.0000
    156 H4S        -1.0080   -0.8750   -5.9690 H         1 PVC1        0.0000
    157 CC5         0.0990    0.6950   -6.9990 C.3       1 PVC1        0.0000
    158 H5R         1.0740    0.1600   -7.0120 H         1 PVC1        0.0000
    159 H5S         0.3180    1.7750   -6.8410 H         1 PVC1        0.0000
    160 CC6        -0.5780    0.5100   -8.3680 C.3       1 PVC1        0.0000
    161 H6R         0.0650    0.9890   -9.1410 H         1 PVC1        0.0000
    162 H6S        -1.5590    1.0350   -8.3780 H         1 PVC1        0.0000
    163 CC7        -0.7810   -0.9660   -8.7430 C.3       1 PVC1        0.0000
    164 H7R        -1.5800   -1.4020   -8.1050 H         1 PVC1        0.0000
    165 H7S         0.1600   -1.5210   -8.5260 H         1 PVC1        0.0000
    166 CC8        -1.1440   -1.1750  -10.2190 C.3       1 PVC1        0.0000
    167 H8R        -0.3260   -0.7660  -10.8540 H         1 PVC1        0.0000
    168 H8S        -2.0710   -0.6070  -10.4550 H         1 PVC1        0.0000
    169 CC9        -1.3630   -2.6590  -10.5570 C.3       1 PVC1        0.0000
    170 H9R        -2.1840   -3.0400   -9.9080 H         1 PVC1        0.0000
    171 H9S        -0.4460   -3.2350  -10.3010 H         1 PVC1        0.0000
    172 CC10       -1.7520   -2.9120  -12.0290 C.3       1 PVC1        0.0000
    173 H10R       -2.6670   -2.3160  -12.2420 H         1 PVC1        0.0000
    174 H10S       -2.0400   -3.9830  -12.1290 H         1 PVC1        0.0000
    175 CC11       -0.6290   -2.6090  -12.9870 C.2       1 PVC1        0.0000
    176 H11R        0.3000   -3.1650  -12.7970 H         1 PVC1        0.0000
    177 CC12       -0.6530   -1.7250  -14.0110 C.2       1 PVC1        0.0000
    178 H12R        0.2540   -1.5980  -14.6190 H         1 PVC1        0.0000
    179 CC13       -1.8210   -0.8660  -14.4230 C.3       1 PVC1        0.0000
    180 H13R       -2.7920   -1.3210  -14.1260 H         1 PVC1        0.0000
    181 H13S       -1.8500   -0.7670  -15.5320 H         1 PVC1        0.0000
    182 CC14       -1.7400    0.5400  -13.8020 C.3       1 PVC1        0.0000
    183 H14R       -0.8160    1.0540  -14.1530 H         1 PVC1        0.0000
    184 H14S       -1.6780    0.4520  -12.6940 H         1 PVC1        0.0000
    185 CC15       -2.9570    1.4090  -14.1490 C.3       1 PVC1        0.0000
    186 H15R       -3.8800    0.8910  -13.8050 H         1 PVC1        0.0000
    187 H15S       -3.0250    1.5240  -15.2540 H         1 PVC1        0.0000
    188 CC16       -2.8910    2.7970  -13.4970 C.3       1 PVC1        0.0000
    189 H16R       -1.9770    3.3240  -13.8540 H         1 PVC1        0.0000
    190 H16S       -2.8010    2.6760  -12.3940 H         1 PVC1        0.0000
    191 CC17       -4.1210    3.6590  -13.8060 C.3       1 PVC1        0.0000
    192 H17R       -5.0310    3.1270  -13.4430 H         1 PVC1        0.0000
    193 H17S       -4.2160    3.7670  -14.9100 H         1 PVC1        0.0000
    194 CC18       -4.0610    5.0480  -13.1660 C.3       1 PVC1        0.0000
    195 H18R       -3.1730    5.6060  -13.5330 H         1 PVC1        0.0000
    196 H18S       -3.9900    4.9640  -12.0600 H         1 PVC1        0.0000
    197 H18T       -4.9720    5.6330  -13.4160 H         1 PVC1        0.0000
    198 CD3         9.0020   -3.6100   -5.6680 C.3       1 PVC1        0.0000
    199 H3X         8.6410   -4.3950   -4.9670 H         1 PVC1        0.0000
    200 H3Y         9.9190   -3.1590   -5.2140 H         1 PVC1        0.0000
    201 CD4         9.4180   -4.2640   -7.0060 C.3       1 PVC1        0.0000
    202 H4X        10.3600   -4.8280   -6.8210 H         1 PVC1        0.0000
    203 H4Y         9.6640   -3.4640   -7.7400 H         1 PVC1        0.0000
    204 CD5         8.4230   -5.2510   -7.6670 C.3       1 PVC1        0.0000
    205 H5X         8.9490   -5.7420   -8.5180 H         1 PVC1        0.0000
    206 H5Y         7.5890   -4.6730   -8.1090 H         1 PVC1        0.0000
    207 CD6         7.8550   -6.3620   -6.7580 C.3       1 PVC1        0.0000
    208 H6X         7.3680   -5.9050   -5.8700 H         1 PVC1        0.0000
    209 H6Y         8.6930   -6.9950   -6.3930 H         1 PVC1        0.0000
    210 CD7         6.8080   -7.2600   -7.4570 C.3       1 PVC1        0.0000
    211 H7X         7.2520   -7.6990   -8.3780 H         1 PVC1        0.0000
    212 H7Y         5.9480   -6.6260   -7.7660 H         1 PVC1        0.0000
    213 CD8         6.2890   -8.4040   -6.5610 C.3       1 PVC1        0.0000
    214 H8X         5.9380   -7.9730   -5.5970 H         1 PVC1        0.0000
    215 H8Y         7.1430   -9.0810   -6.3330 H         1 PVC1        0.0000
    216 CD9         5.1380   -9.2430   -7.1640 C.3       1 PVC1        0.0000
    217 H9X         5.4230   -9.5780   -8.1840 H         1 PVC1        0.0000
    218 H9Y         4.2330   -8.6000   -7.2570 H         1 PVC1        0.0000
    219 CD10        4.8080  -10.4750   -6.2930 C.3       1 PVC1        0.0000
    220 H10X        4.5890  -10.1010   -5.2660 H         1 PVC1        0.0000
    221 H10Y        5.7110  -11.1200   -6.2240 H         1 PVC1        0.0000
    222 CD11        3.6070  -11.3450   -6.7330 C.3       1 PVC1        0.0000
    223 H11X        2.7190  -10.6990   -6.8990 H         1 PVC1        0.0000
    224 H11Y        3.3680  -12.0310   -5.8880 H         1 PVC1        0.0000
    225 CD12        3.8480  -12.2220   -7.9760 C.3       1 PVC1        0.0000
    226 H12X        4.7570  -12.8450   -7.8220 H         1 PVC1        0.0000
    227 H12Y        4.0460  -11.5480   -8.8400 H         1 PVC1        0.0000
    228 CD13        2.6660  -13.1460   -8.3470 C.3       1 PVC1        0.0000
    229 H13X        2.8740  -13.5750   -9.3550 H         1 PVC1        0.0000
    230 H13Y        1.7350  -12.5430   -8.4280 H         1 PVC1        0.0000
    231 CD14        2.4170  -14.3300   -7.3900 C.3       1 PVC1        0.0000
    232 H14X        2.0930  -13.9490   -6.3970 H         1 PVC1        0.0000
    233 H14Y        3.3680  -14.8900   -7.2470 H         1 PVC1        0.0000
    234 CD15        1.3530  -15.3050   -7.9280 C.3       1 PVC1        0.0000
    235 H15X        1.6790  -15.6690   -8.9290 H         1 PVC1        0.0000
    236 H15Y        0.3990  -14.7490   -8.0730 H         1 PVC1        0.0000
    237 CD16        1.0880  -16.5180   -7.0280 C.3       1 PVC1        0.0000
    238 H16X        0.7200  -16.1950   -6.0310 H         1 PVC1        0.0000
    239 H16Y        2.0150  -17.1130   -6.8870 H         1 PVC1        0.0000
    240 H16Z        0.3190  -17.1790   -7.4850 H         1 PVC1        0.0000
@<TRIPOS>BOND
     1  181  179 1 
     2  187  185 1 
     3  193  191 1 
     4  178  177 1 
     5  179  180 1 
     6  179  177 1 
     7  179  182 1 
     8  183  182 1 
     9  185  186 1 
    10  185  182 1 
    11  185  188 1 
    12  177  175 2 
    13  189  188 1 
    14  191  188 1 
    15  191  192 1 
    16  191  194 1 
    17  182  184 1 
    18  195  194 1 
    19  188  190 1 
    20  197  194 1 
    21  194  196 1 
    22  175  176 1 
    23  175  172 1 
    24  173  172 1 
    25  174  172 1 
    26  172  169 1 
    27  103  101 1 
    28  167  166 1 
    29  100   98 1 
    30  169  171 1 
    31  169  166 1 
    32  169  170 1 
    33  105  104 1 
    34  168  166 1 
    35  107  104 1 
    36  166  163 1 
    37  101  104 1 
    38  101   98 1 
    39  101  102 1 
    40   99   98 1 
    41  104  106 1 
    42   98   95 1 
    43  229  228 1 
    44  161  160 1 
    45  235  234 1 
    46  227  225 1 
    47  163  165 1 
    48  163  160 1 
    49  163  164 1 
    50   96   95 1 
    51  205  204 1 
    52   95   97 1 
    53   95   92 1 
    54  230  228 1 
    55  211  210 1 
    56  162  160 1 
    57  160  157 1 
    58  228  225 1 
    59  228  231 1 
    60  217  216 1 
    61   90   89 1 
    62  206  204 1 
    63  236  234 1 
    64  225  226 1 
    65  225  222 1 
    66  234  231 1 
    67  234  237 1 
    68  212  210 1 
    69  203  201 1 
    70   77   76 1 
    71  204  201 1 
    72  204  207 1 
    73  139  138 1 
    74   71   70 1 
    75   91   89 1 
    76   83   82 1 
    77  240  237 1 
    78  210  207 1 
    79  210  213 1 
    80  145  144 1 
    81  231  233 1 
    82  231  232 1 
    83   94   92 1 
    84   92   89 1 
    85   92   93 1 
    86   89   87 1 
    87  218  216 1 
    88  216  213 1 
    89  216  219 1 
    90  237  239 1 
    91  237  238 1 
    92  158  157 1 
    93  201  202 1 
    94  201  198 1 
    95  157  159 1 
    96  157  154 1 
    97  223  222 1 
    98  137  135 1 
    99  140  138 1 
   100  207  209 1 
   101  207  208 1 
   102  222  219 1 
   103  222  224 1 
   104  138  135 1 
   105  138  141 1 
   106   76   78 1 
   107   76   73 1 
   108   76   79 1 
   109   84   82 1 
   110  146  144 1 
   111  213  215 1 
   112  213  214 1 
   113   70   72 1 
   114   70   73 1 
   115   70   67 1 
   116   82   79 1 
   117   82   85 1 
   118   68   67 1 
   119  144  141 1 
   120  144  147 1 
   121   59   58 1 
   122   60   58 1 
   123  219  221 1 
   124  219  220 1 
   125   75   73 1 
   126   69   67 1 
   127  121  120 1 
   128  135  136 1 
   129  135  132 1 
   130   73   74 1 
   131  150  147 1 
   132  115  114 1 
   133  127  126 1 
   134   87   85 2 
   135   87   88 1 
   136   67   64 1 
   137  156  154 1 
   138   79   81 1 
   139   79   80 1 
   140  154  155 1 
   141  154  151 1 
   142   58  198 1 
   143   58   56 1 
   144  141  143 1 
   145  141  142 1 
   146  198  200 1 
   147  198  199 1 
   148   85   86 1 
   149  147  149 1 
   150  147  148 1 
   151  122  120 1 
   152  128  126 1 
   153  120  117 1 
   154  120  123 1 
   155   48   47 2 
   156  126  123 1 
   157  126  129 1 
   158  114  116 1 
   159  114  117 1 
   160  114  111 1 
   161  133  132 1 
   162   51   49 1 
   163  113  111 1 
   164  132  129 1 
   165  132  134 1 
   166   45   44 1 
   167   55   56 1 
   168   55   52 1 
   169  112  111 1 
   170   64   65 1 
   171   64   66 1 
   172   64   61 1 
   173   47   49 1 
   174   47   46 1 
   175  151  152 1 
   176  151   49 1 
   177  151  153 1 
   178   56   57 2 
   179  117  119 1 
   180  117  118 1 
   181  123  125 1 
   182  123  124 1 
   183  111  108 1 
   184   49   50 1 
   185  129  131 1 
   186  129  130 1 
   187   63   61 1 
   188   62   61 1 
   189   46   44 1 
   190   44   52 1 
   191   44    9 1 
   192   61   32 1 
   193   52   54 1 
   194   52   53 1 
   195   42   41 1 
   196   11    9 1 
   197  108   41 1 
   198  108  110 1 
   199  108  109 1 
   200   43   41 1 
   201    9   10 1 
   202    9    8 1 
   203   41   39 1 
   204   32   33 1 
   205   32   34 1 
   206   32   30 1 
   207   31   30 2 
   208   30   29 1 
   209   18   16 1 
   210    8    4 1 
   211   14   15 1 
   212   14   12 1 
   213   39   38 1 
   214   39   40 2 
   215    3    1 1 
   216   38   35 1 
   217    6    4 2 
   218   16   12 1 
   219   16   22 1 
   220   16   17 1 
   221   29   27 1 
   222    7    1 1 
   223    7    4 1 
   224   12    1 1 
   225   12   13 1 
   226    1    2 1 
   227    4    5 1 
   228   22   19 1 
   229   28   27 1 
   230   27   35 1 
   231   27   24 1 
   232   35   36 1 
   233   35   37 1 
   234   19   21 2 
   235   19   23 1 
   236   19   20 1 
   237   24   23 1 
   238   24   25 1 
   239   24   26 1 
