@<TRIPOS>MOLECULE
C:\Users\Praveer\PycharmProjects\pdb_to_mol2_converter\data\pdb\pvpe.pdb
  125   124     0     0     0
SMALL
GASTEIGER

@<TRIPOS>ATOM
      1 N           0.0150   -0.0540    0.0460 N.4       1 PVP1        0.0000
      2 HN1        -0.3670   -0.9000    0.5060 H         1 PVP1        0.0000
      3 HN2        -0.3880    0.0780   -0.9000 H         1 PVP1        0.0000
      4 HN3        -0.2970    0.7970    0.6080 H         1 PVP1        0.0000
      5 C12         1.5220   -0.0190    0.0250 C.3       1 PVP1        0.0000
      6 H12A        1.8670   -0.5950   -0.8570 H         1 PVP1        0.0000
      7 H12B        1.8850   -0.5080    0.9540 H         1 PVP1        0.0000
      8 C11         2.0440    1.4300   -0.0190 C.3       1 PVP1        0.0000
      9 H11A        1.6260    1.9860   -0.8930 H         1 PVP1        0.0000
     10 H11B        3.1480    1.3940   -0.1720 H         1 PVP1        0.0000
     11 P           0.5570    3.0520    1.4240 P.3       1 PVP1        0.0000
     12 O13         0.7750    4.2650    0.6210 O.2       1 PVP1        0.0000
     13 O14        -0.6320    2.2170    1.1250 O.3       1 PVP1        0.0000
     14 O11         0.6280    3.3540    2.9690 O.3       1 PVP1        0.0000
     15 O12         1.7980    2.0870    1.2220 O.3       1 PVP1        0.0000
     16 C1          1.7550    3.9980    3.5640 C.3       1 PVP1        0.0000
     17 HA          1.4060    4.9360    4.0520 H         1 PVP1        0.0000
     18 HB          2.5470    4.2860    2.8310 H         1 PVP1        0.0000
     19 C2          2.3900    3.1020    4.6560 C.3       1 PVP1        0.0000
     20 HS          1.5600    2.7700    5.3260 H         1 PVP1        0.0000
     21 O21         3.3580    3.9060    5.3570 O.3       1 PVP1        0.0000
     22 C21         3.5660    3.5660    6.6180 C.2       1 PVP1        0.0000
     23 O22         2.9660    2.7120    7.2430 O.2       1 PVP1        0.0000
     24 C22         4.6940    4.4350    7.1750 C.3       1 PVP1        0.0000
     25 H2R         4.3730    5.4950    7.1070 H         1 PVP1        0.0000
     26 H2S         5.5840    4.2910    6.5290 H         1 PVP1        0.0000
     27 C3          3.0600    1.8390    4.0350 C.3       1 PVP1        0.0000
     28 HX          3.7930    2.2010    3.2810 H         1 PVP1        0.0000
     29 HY          2.2880    1.2630    3.4760 H         1 PVP1        0.0000
     30 O31         3.7610    1.0400    5.0130 O.3       1 PVP1        0.0000
     31 C31         3.0540    0.0540    5.5600 C.2       1 PVP1        0.0000
     32 O32         1.9560   -0.3230    5.1940 O.2       1 PVP1        0.0000
     33 C32         3.8650   -0.5490    6.7070 C.3       1 PVP1        0.0000
     34 H2X         4.1060    0.2730    7.4140 H         1 PVP1        0.0000
     35 H2Y         4.8120   -0.9460    6.2880 H         1 PVP1        0.0000
     36 C23         5.0430    4.0810    8.6370 C.3       1 PVP1        0.0000
     37 H3R         5.3350    3.0080    8.7040 H         1 PVP1        0.0000
     38 H3S         4.1470    4.2250    9.2840 H         1 PVP1        0.0000
     39 C24         6.1920    4.9400    9.1810 C.3       1 PVP1        0.0000
     40 H4R         5.9050    6.0150    9.1250 H         1 PVP1        0.0000
     41 H4S         7.0900    4.7960    8.5390 H         1 PVP1        0.0000
     42 C25         6.5540    4.5940   10.6310 C.3       1 PVP1        0.0000
     43 H5R         6.8240    3.5150   10.6910 H         1 PVP1        0.0000
     44 H5S         5.6620    4.7540   11.2790 H         1 PVP1        0.0000
     45 C26         7.7220    5.4320   11.1660 C.3       1 PVP1        0.0000
     46 H6R         7.4530    6.5110   11.1130 H         1 PVP1        0.0000
     47 H6S         8.6120    5.2730   10.5170 H         1 PVP1        0.0000
     48 C27         8.0890    5.0770   12.6130 C.3       1 PVP1        0.0000
     49 H7R         8.3390    3.9930   12.6690 H         1 PVP1        0.0000
     50 H7S         7.2060    5.2550   13.2680 H         1 PVP1        0.0000
     51 C28         9.2770    5.8910   13.1400 C.3       1 PVP1        0.0000
     52 H8R         9.0330    6.9760   13.0850 H         1 PVP1        0.0000
     53 H8S        10.1610    5.7100   12.4880 H         1 PVP1        0.0000
     54 C29         9.6400    5.5300   14.5880 C.3       1 PVP1        0.0000
     55 H9R         9.8570    4.4390   14.6390 H         1 PVP1        0.0000
     56 H9S         8.7580    5.7330   15.2370 H         1 PVP1        0.0000
     57 C210       10.8520    6.3270   15.1030 C.3       1 PVP1        0.0000
     58 H10R       10.6140    7.4090   15.0010 H         1 PVP1        0.0000
     59 H10S       11.7190    6.1240   14.4370 H         1 PVP1        0.0000
     60 C211       11.1950    5.9500   16.5240 C.2       1 PVP1        0.0000
     61 H111       11.4400    4.8860   16.6700 H         1 PVP1        0.0000
     62 C212       11.1960    6.7670   17.5940 C.2       1 PVP1        0.0000
     63 H121       11.4500    6.3480   18.5810 H         1 PVP1        0.0000
     64 C213       10.8830    8.2430   17.5920 C.3       1 PVP1        0.0000
     65 H13R       11.1720    8.7180   16.6280 H         1 PVP1        0.0000
     66 H13S       11.4750    8.7570   18.3830 H         1 PVP1        0.0000
     67 C214        9.3890    8.5190   17.8370 C.3       1 PVP1        0.0000
     68 H14R        9.0770    8.0740   18.8090 H         1 PVP1        0.0000
     69 H14S        8.7880    8.0350   17.0330 H         1 PVP1        0.0000
     70 C215        9.0670   10.0200   17.8570 C.3       1 PVP1        0.0000
     71 H15R        9.3840   10.4730   16.8900 H         1 PVP1        0.0000
     72 H15S        9.6530   10.5080   18.6680 H         1 PVP1        0.0000
     73 C216        7.5740   10.3020   18.0750 C.3       1 PVP1        0.0000
     74 H16R        7.2530    9.8460   19.0380 H         1 PVP1        0.0000
     75 H16S        6.9900    9.8180   17.2610 H         1 PVP1        0.0000
     76 C217        7.2520   11.8020   18.0980 C.3       1 PVP1        0.0000
     77 H17R        7.5860   12.2550   17.1370 H         1 PVP1        0.0000
     78 H17S        7.8400   12.2820   18.9140 H         1 PVP1        0.0000
     79 C218        5.7650   12.0990   18.3060 C.3       1 PVP1        0.0000
     80 H18R        5.4150   11.6740   19.2710 H         1 PVP1        0.0000
     81 H18S        5.1620   11.6530   17.4870 H         1 PVP1        0.0000
     82 H18T        5.5840   13.1960   18.3190 H         1 PVP1        0.0000
     83 C33         3.1050   -1.6660    7.4560 C.3       1 PVP1        0.0000
     84 H3X         2.8550   -2.4930    6.7530 H         1 PVP1        0.0000
     85 H3Y         2.1460   -1.2600    7.8530 H         1 PVP1        0.0000
     86 C34         3.9250   -2.2290    8.6250 C.3       1 PVP1        0.0000
     87 H4X         4.1840   -1.3970    9.3180 H         1 PVP1        0.0000
     88 H4Y         4.8770   -2.6520    8.2330 H         1 PVP1        0.0000
     89 C35         3.1790   -3.3160    9.4110 C.3       1 PVP1        0.0000
     90 H5X         2.9170   -4.1510    8.7240 H         1 PVP1        0.0000
     91 H5Y         2.2280   -2.8910    9.8060 H         1 PVP1        0.0000
     92 C36         4.0070   -3.8660   10.5820 C.3       1 PVP1        0.0000
     93 H6X         4.2790   -3.0260   11.2590 H         1 PVP1        0.0000
     94 H6Y         4.9520   -4.3010   10.1860 H         1 PVP1        0.0000
     95 C37         3.2620   -4.9370   11.3910 C.3       1 PVP1        0.0000
     96 H7X         2.9840   -5.7780   10.7160 H         1 PVP1        0.0000
     97 H7Y         2.3200   -4.5010   11.7930 H         1 PVP1        0.0000
     98 C38         4.1000   -5.4840   12.5560 C.3       1 PVP1        0.0000
     99 H8X         4.3860   -4.6400   13.2240 H         1 PVP1        0.0000
    100 H8Y         5.0380   -5.9260   12.1510 H         1 PVP1        0.0000
    101 C39         3.3590   -6.5460   13.3790 C.3       1 PVP1        0.0000
    102 H9X         3.0690   -7.3890   12.7120 H         1 PVP1        0.0000
    103 H9Y         2.4240   -6.1020   13.7900 H         1 PVP1        0.0000
    104 C310        4.2070   -7.0910   14.5380 C.3       1 PVP1        0.0000
    105 H10X        4.5030   -6.2470   15.2000 H         1 PVP1        0.0000
    106 H10Y        5.1390   -7.5400   14.1260 H         1 PVP1        0.0000
    107 C311        3.4690   -8.1470   15.3730 C.3       1 PVP1        0.0000
    108 H11X        3.1710   -8.9910   14.7120 H         1 PVP1        0.0000
    109 H11Y        2.5390   -7.6980   15.7890 H         1 PVP1        0.0000
    110 C312        4.3250   -8.6900   16.5260 C.3       1 PVP1        0.0000
    111 H12X        4.6270   -7.8440   17.1840 H         1 PVP1        0.0000
    112 H12Y        5.2520   -9.1420   16.1090 H         1 PVP1        0.0000
    113 C313        3.5900   -9.7410   17.3690 C.3       1 PVP1        0.0000
    114 H13X        3.2860  -10.5870   16.7130 H         1 PVP1        0.0000
    115 H13Y        2.6630   -9.2890   17.7890 H         1 PVP1        0.0000
    116 C314        4.4500  -10.2820   18.5200 C.3       1 PVP1        0.0000
    117 H14X        4.7570   -9.4360   19.1750 H         1 PVP1        0.0000
    118 H14Y        5.3750  -10.7370   18.1000 H         1 PVP1        0.0000
    119 C315        3.7170  -11.3310   19.3670 C.3       1 PVP1        0.0000
    120 H15X        3.4070  -12.1720   18.7070 H         1 PVP1        0.0000
    121 H15Y        2.7900  -10.8720   19.7810 H         1 PVP1        0.0000
    122 C316        4.5640  -11.8810   20.5180 C.3       1 PVP1        0.0000
    123 H16X        4.8660  -11.0610   21.2050 H         1 PVP1        0.0000
    124 H16Y        5.4840  -12.3660   20.1270 H         1 PVP1        0.0000
    125 H16Z        3.9900  -12.6330   21.1000 H         1 PVP1        0.0000
@<TRIPOS>BOND
     1    3    1 1 
     2    9    8 1 
     3    6    5 1 
     4   10    8 1 
     5    8    5 1 
     6    8   15 1 
     7    5    1 1 
     8    5    7 1 
     9    1    2 1 
    10    1    4 1 
    11   12   11 2 
    12   13   11 1 
    13   15   11 1 
    14   11   14 1 
    15   18   16 1 
    16   14   16 1 
    17   28   27 1 
    18   29   27 1 
    19   16   17 1 
    20   16   19 1 
    21   27   19 1 
    22   27   30 1 
    23   19   20 1 
    24   19   21 1 
    25   30   31 1 
    26   32   31 2 
    27   21   22 1 
    28   31   33 1 
    29   35   33 1 
    30   26   24 1 
    31   22   24 1 
    32   22   23 2 
    33   33   34 1 
    34   33   83 1 
    35   84   83 1 
    36   25   24 1 
    37   24   36 1 
    38   83   85 1 
    39   83   86 1 
    40   88   86 1 
    41   41   39 1 
    42   86   87 1 
    43   86   89 1 
    44   36   37 1 
    45   36   39 1 
    46   36   38 1 
    47   90   89 1 
    48   40   39 1 
    49   39   42 1 
    50   89   91 1 
    51   89   92 1 
    52   94   92 1 
    53   47   45 1 
    54   92   93 1 
    55   92   95 1 
    56   42   43 1 
    57   42   45 1 
    58   42   44 1 
    59   96   95 1 
    60   46   45 1 
    61   45   48 1 
    62   95   97 1 
    63   95   98 1 
    64  100   98 1 
    65   53   51 1 
    66   98   99 1 
    67   98  101 1 
    68   48   49 1 
    69   48   51 1 
    70   48   50 1 
    71  102  101 1 
    72   52   51 1 
    73   51   54 1 
    74  101  103 1 
    75  101  104 1 
    76  106  104 1 
    77   59   57 1 
    78  104  105 1 
    79  104  107 1 
    80   54   55 1 
    81   54   57 1 
    82   54   56 1 
    83  108  107 1 
    84   58   57 1 
    85   57   60 1 
    86  107  109 1 
    87  107  110 1 
    88  112  110 1 
    89   60   61 1 
    90   60   62 2 
    91  110  111 1 
    92  110  113 1 
    93   65   64 1 
    94  114  113 1 
    95   71   70 1 
    96   69   67 1 
    97   77   76 1 
    98   75   73 1 
    99  113  115 1 
   100  113  116 1 
   101   81   79 1 
   102   64   62 1 
   103   64   67 1 
   104   64   66 1 
   105   62   63 1 
   106   67   70 1 
   107   67   68 1 
   108   70   73 1 
   109   70   72 1 
   110   73   76 1 
   111   73   74 1 
   112   76   79 1 
   113   76   78 1 
   114  118  116 1 
   115   79   82 1 
   116   79   80 1 
   117  116  117 1 
   118  116  119 1 
   119  120  119 1 
   120  119  121 1 
   121  119  122 1 
   122  124  122 1 
   123  122  125 1 
   124  122  123 1 
