@<TRIPOS>MOLECULE
C:\Users\Praveer\PycharmProjects\pdb_to_mol2_converter\data\pdb\pvpg.pdb
  127   126     0     0     0
SMALL
GASTEIGER

@<TRIPOS>ATOM
      1 C13         0.0010    0.0080   -0.0030 C.3       1 PVP1        0.0000
      2 H13A       -0.3610   -1.0380    0.1010 H         1 PVP1        0.0000
      3 H13B       -0.3670    0.5990    0.8630 H         1 PVP1        0.0000
      4 OC3        -0.5170    0.5600   -1.2120 O.3       1 PVP1        0.0000
      5 HO3         0.1360    0.2770   -1.8690 H         1 PVP1        0.0000
      6 C12         1.5530   -0.0030   -0.0060 C.3       1 PVP1        0.0000
      7 H12A        1.8830   -0.5220    0.9230 H         1 PVP1        0.0000
      8 OC2         2.0380   -0.7510   -1.1220 O.3       1 PVP1        0.0000
      9 HO2         3.0030   -0.8040   -0.9550 H         1 PVP1        0.0000
     10 C11         2.1690    1.4340   -0.0020 C.3       1 PVP1        0.0000
     11 H11A        1.8860    1.9380    0.9490 H         1 PVP1        0.0000
     12 H11B        1.6920    2.0020   -0.8310 H         1 PVP1        0.0000
     13 P           4.5640    0.5860    0.6560 P.3       1 PVP1        0.0000
     14 O13         4.1530    0.6370    2.0740 O.3       1 PVP1        0.0000
     15 O14         4.5920   -0.7330   -0.0160 O.2       1 PVP1        0.0000
     16 O12         3.5880    1.5000   -0.1840 O.3       1 PVP1        0.0000
     17 O11         5.9480    1.3340    0.4690 O.3       1 PVP1        0.0000
     18 C1          6.0700    2.7320    0.7440 C.3       1 PVP1        0.0000
     19 HA          6.7920    2.8780    1.5770 H         1 PVP1        0.0000
     20 HB          5.1070    3.2060    1.0580 H         1 PVP1        0.0000
     21 C2          6.5910    3.5020   -0.4950 C.3       1 PVP1        0.0000
     22 HS          7.6270    3.1410   -0.6990 H         1 PVP1        0.0000
     23 O21         6.5500    4.9030   -0.1610 O.3       1 PVP1        0.0000
     24 C21         7.4380    5.6640   -0.7700 C.2       1 PVP1        0.0000
     25 O22         8.3380    5.2890   -1.5000 O.2       1 PVP1        0.0000
     26 C22         7.1590    7.1230   -0.4040 C.3       1 PVP1        0.0000
     27 H2R         7.2430    7.2190    0.6980 H         1 PVP1        0.0000
     28 H2S         6.1160    7.3540   -0.7030 H         1 PVP1        0.0000
     29 C3          5.7150    3.2070   -1.7530 C.3       1 PVP1        0.0000
     30 HX          4.6640    3.4410   -1.4730 H         1 PVP1        0.0000
     31 HY          5.7440    2.1140   -1.9730 H         1 PVP1        0.0000
     32 O31         6.0760    4.0150   -2.8950 O.3       1 PVP1        0.0000
     33 C31         7.0710    3.5320   -3.6350 C.2       1 PVP1        0.0000
     34 O32         7.6230    2.4600   -3.4820 O.2       1 PVP1        0.0000
     35 C32         7.4000    4.5510   -4.7270 C.3       1 PVP1        0.0000
     36 H2X         7.6720    5.5030   -4.2240 H         1 PVP1        0.0000
     37 H2Y         6.4840    4.7130   -5.3310 H         1 PVP1        0.0000
     38 C23         8.1350    8.0990   -1.0970 C.3       1 PVP1        0.0000
     39 H3R         8.0570    7.9850   -2.2030 H         1 PVP1        0.0000
     40 H3S         9.1830    7.8520   -0.8080 H         1 PVP1        0.0000
     41 C24         7.8520    9.5620   -0.7300 C.3       1 PVP1        0.0000
     42 H4R         7.9390    9.6860    0.3730 H         1 PVP1        0.0000
     43 H4S         6.8070    9.8160   -1.0180 H         1 PVP1        0.0000
     44 C25         8.8130   10.5390   -1.4210 C.3       1 PVP1        0.0000
     45 H5R         8.7230   10.4190   -2.5240 H         1 PVP1        0.0000
     46 H5S         9.8590   10.2850   -1.1380 H         1 PVP1        0.0000
     47 C26         8.5350   12.0030   -1.0520 C.3       1 PVP1        0.0000
     48 H6R         8.6430   12.1290    0.0490 H         1 PVP1        0.0000
     49 H6S         7.4840   12.2530   -1.3190 H         1 PVP1        0.0000
     50 C27         9.4790   12.9800   -1.7650 C.3       1 PVP1        0.0000
     51 H7R         9.3620   12.8590   -2.8660 H         1 PVP1        0.0000
     52 H7S        10.5310   12.7270   -1.5070 H         1 PVP1        0.0000
     53 C28         9.2090   14.4440   -1.3910 C.3       1 PVP1        0.0000
     54 H8R         9.3490   14.5720   -0.2940 H         1 PVP1        0.0000
     55 H8S         8.1500   14.6920   -1.6290 H         1 PVP1        0.0000
     56 C29        10.1310   15.4220   -2.1340 C.3       1 PVP1        0.0000
     57 H9R         9.9840   15.2850   -3.2290 H         1 PVP1        0.0000
     58 H9S        11.1890   15.1660   -1.8970 H         1 PVP1        0.0000
     59 C210        9.8610   16.8880   -1.7500 C.3       1 PVP1        0.0000
     60 H10R       10.0010   16.9810   -0.6500 H         1 PVP1        0.0000
     61 H10S        8.7920   17.1190   -1.9580 H         1 PVP1        0.0000
     62 C211       10.7490   17.8340   -2.5220 C.2       1 PVP1        0.0000
     63 H111       10.5960   17.8180   -3.6120 H         1 PVP1        0.0000
     64 C212       11.6950   18.6490   -2.0160 C.2       1 PVP1        0.0000
     65 H121       12.2800   19.2740   -2.7090 H         1 PVP1        0.0000
     66 C213       12.0600   18.8100   -0.5610 C.3       1 PVP1        0.0000
     67 H13R       11.2020   18.5720    0.1070 H         1 PVP1        0.0000
     68 H13S       12.3310   19.8690   -0.3540 H         1 PVP1        0.0000
     69 C214       13.2440   17.9110   -0.1630 C.3       1 PVP1        0.0000
     70 H14R       14.1270   18.1490   -0.7980 H         1 PVP1        0.0000
     71 H14S       12.9750   16.8450   -0.3410 H         1 PVP1        0.0000
     72 C215       13.6390   18.0800    1.3110 C.3       1 PVP1        0.0000
     73 H15R       12.7620   17.8380    1.9520 H         1 PVP1        0.0000
     74 H15S       13.9110   19.1440    1.4960 H         1 PVP1        0.0000
     75 C216       14.8180   17.1830    1.7140 C.3       1 PVP1        0.0000
     76 H16R       15.6940   17.4220    1.0700 H         1 PVP1        0.0000
     77 H16S       14.5440   16.1190    1.5320 H         1 PVP1        0.0000
     78 C217       15.2170   17.3540    3.1850 C.3       1 PVP1        0.0000
     79 H17R       14.3360   17.1170    3.8250 H         1 PVP1        0.0000
     80 H17S       15.4800   18.4220    3.3630 H         1 PVP1        0.0000
     81 C218       16.3950   16.4700    3.6010 C.3       1 PVP1        0.0000
     82 H18R       17.2930   16.7070    2.9910 H         1 PVP1        0.0000
     83 H18S       16.1460   15.3970    3.4560 H         1 PVP1        0.0000
     84 H18T       16.6460   16.6310    4.6720 H         1 PVP1        0.0000
     85 C33         8.5620    4.0910   -5.6350 C.3       1 PVP1        0.0000
     86 H3X         8.3020    3.1210   -6.1170 H         1 PVP1        0.0000
     87 H3Y         9.4720    3.9230   -5.0130 H         1 PVP1        0.0000
     88 C34         8.8860    5.1220   -6.7240 C.3       1 PVP1        0.0000
     89 H4X         9.1440    6.0910   -6.2400 H         1 PVP1        0.0000
     90 H4Y         7.9820    5.2860   -7.3520 H         1 PVP1        0.0000
     91 C35        10.0510    4.6880   -7.6240 C.3       1 PVP1        0.0000
     92 H5X         9.7980    3.7170   -8.1060 H         1 PVP1        0.0000
     93 H5Y        10.9560    4.5270   -6.9950 H         1 PVP1        0.0000
     94 C36        10.3730    5.7220   -8.7120 C.3       1 PVP1        0.0000
     95 H6X        10.6180    6.6940   -8.2270 H         1 PVP1        0.0000
     96 H6Y         9.4690    5.8780   -9.3440 H         1 PVP1        0.0000
     97 C37        11.5450    5.2980   -9.6070 C.3       1 PVP1        0.0000
     98 H7X        11.3020    4.3260  -10.0900 H         1 PVP1        0.0000
     99 H7Y        12.4480    5.1450   -8.9740 H         1 PVP1        0.0000
    100 C38        11.8640    6.3340  -10.6940 C.3       1 PVP1        0.0000
    101 H8X        12.1020    7.3080  -10.2090 H         1 PVP1        0.0000
    102 H8Y        10.9630    6.4840  -11.3290 H         1 PVP1        0.0000
    103 C39        13.0430    5.9170  -11.5840 C.3       1 PVP1        0.0000
    104 H9X        12.8070    4.9430  -12.0680 H         1 PVP1        0.0000
    105 H9Y        13.9440    5.7690  -10.9470 H         1 PVP1        0.0000
    106 C310       13.3600    6.9540  -12.6700 C.3       1 PVP1        0.0000
    107 H10X       13.5900    7.9290  -12.1860 H         1 PVP1        0.0000
    108 H10Y       12.4600    7.0980  -13.3100 H         1 PVP1        0.0000
    109 C311       14.5440    6.5420  -13.5560 C.3       1 PVP1        0.0000
    110 H11X       14.3150    5.5670  -14.0410 H         1 PVP1        0.0000
    111 H11Y       15.4440    6.3990  -12.9170 H         1 PVP1        0.0000
    112 C312       14.8590    7.5810  -14.6410 C.3       1 PVP1        0.0000
    113 H12X       15.0830    8.5570  -14.1560 H         1 PVP1        0.0000
    114 H12Y       13.9610    7.7210  -15.2840 H         1 PVP1        0.0000
    115 C313       16.0480    7.1750  -15.5230 C.3       1 PVP1        0.0000
    116 H13X       15.8250    6.1990  -16.0090 H         1 PVP1        0.0000
    117 H13Y       16.9470    7.0360  -14.8810 H         1 PVP1        0.0000
    118 C314       16.3630    8.2160  -16.6070 C.3       1 PVP1        0.0000
    119 H14X       16.5830    9.1930  -16.1210 H         1 PVP1        0.0000
    120 H14Y       15.4660    8.3530  -17.2510 H         1 PVP1        0.0000
    121 C315       17.5540    7.8140  -17.4860 C.3       1 PVP1        0.0000
    122 H15X       17.3310    6.8340  -17.9660 H         1 PVP1        0.0000
    123 H15Y       18.4470    7.6720  -16.8360 H         1 PVP1        0.0000
    124 C316       17.8800    8.8430  -18.5730 C.3       1 PVP1        0.0000
    125 H16X       18.1300    9.8250  -18.1160 H         1 PVP1        0.0000
    126 H16Y       17.0100    8.9820  -19.2500 H         1 PVP1        0.0000
    127 H16Z       18.7480    8.5080  -19.1800 H         1 PVP1        0.0000
@<TRIPOS>BOND
     1  126  124 1 
     2  127  124 1 
     3  124  125 1 
     4  124  121 1 
     5  122  121 1 
     6  121  123 1 
     7  121  118 1 
     8  120  118 1 
     9  118  119 1 
    10  118  115 1 
    11  116  115 1 
    12  115  117 1 
    13  115  112 1 
    14  114  112 1 
    15  112  113 1 
    16  112  109 1 
    17  110  109 1 
    18  109  111 1 
    19  109  106 1 
    20  108  106 1 
    21  106  107 1 
    22  106  103 1 
    23  104  103 1 
    24  103  105 1 
    25  103  100 1 
    26  102  100 1 
    27  100  101 1 
    28  100   97 1 
    29   98   97 1 
    30   97   99 1 
    31   97   94 1 
    32   96   94 1 
    33   94   95 1 
    34   94   91 1 
    35   92   91 1 
    36   91   93 1 
    37   91   88 1 
    38   90   88 1 
    39   88   89 1 
    40   88   85 1 
    41   86   85 1 
    42   85   87 1 
    43   85   35 1 
    44   37   35 1 
    45   35   36 1 
    46   35   33 1 
    47   33   34 2 
    48   33   32 1 
    49   63   62 1 
    50   57   56 1 
    51   32   29 1 
    52   51   50 1 
    53   65   64 1 
    54   45   44 1 
    55   62   64 2 
    56   62   59 1 
    57   39   38 1 
    58   56   58 1 
    59   56   59 1 
    60   56   53 1 
    61   64   66 1 
    62   31   29 1 
    63   61   59 1 
    64    5    4 1 
    65   50   52 1 
    66   50   53 1 
    67   50   47 1 
    68   29   30 1 
    69   29   21 1 
    70   59   60 1 
    71   55   53 1 
    72   25   24 2 
    73   44   46 1 
    74   44   47 1 
    75   44   41 1 
    76   53   54 1 
    77   49   47 1 
    78    4    1 1 
    79    8    9 1 
    80    8    6 1 
    81   38   40 1 
    82   38   41 1 
    83   38   26 1 
    84   47   48 1 
    85   43   41 1 
    86   12   10 1 
    87   70   69 1 
    88   24   26 1 
    89   24   23 1 
    90   41   42 1 
    91   28   26 1 
    92   22   21 1 
    93   66   68 1 
    94   66   69 1 
    95   66   67 1 
    96   21   23 1 
    97   21   18 1 
    98   26   27 1 
    99   71   69 1 
   100   16   10 1 
   101   16   13 1 
   102   69   72 1 
   103   15   13 2 
   104    6    1 1 
   105    6   10 1 
   106    6    7 1 
   107    1    2 1 
   108    1    3 1 
   109   10   11 1 
   110   17   13 1 
   111   17   18 1 
   112   13   14 1 
   113   18   20 1 
   114   18   19 1 
   115   76   75 1 
   116   72   74 1 
   117   72   75 1 
   118   72   73 1 
   119   77   75 1 
   120   75   78 1 
   121   82   81 1 
   122   78   80 1 
   123   78   81 1 
   124   78   79 1 
   125   83   81 1 
   126   81   84 1 
