@<TRIPOS>MOLECULE
C:\Users\Praveer\PycharmProjects\pdb_to_mol2_converter\data\pdb\pxyl.pdb
   18    18     0     0     0
SMALL
GASTEIGER

@<TRIPOS>ATOM
      1 CG          0.0430    0.0750   -0.0040 C.ar      1 PXY1        0.0000
      2 CD1         1.4460    0.0800   -0.0010 C.ar      1 PXY1        0.0000
      3 HD1         1.9850   -0.8550    0.0010 H         1 PXY1        0.0000
      4 CD2        -0.6540    1.2920   -0.0010 C.ar      1 PXY1        0.0000
      5 HD2        -1.7330    1.2910    0.0010 H         1 PXY1        0.0000
      6 CE1         2.1470    1.2940   -0.0000 C.ar      1 PXY1        0.0000
      7 HE1         3.2270    1.2950   -0.0010 H         1 PXY1        0.0000
      8 CE2         0.0470    2.5070   -0.0000 C.ar      1 PXY1        0.0000
      9 HE2        -0.4920    3.4420   -0.0010 H         1 PXY1        0.0000
     10 CZ          1.4500    2.5110    0.0040 C.ar      1 PXY1        0.0000
     11 C1          2.1990    3.8080   -0.0070 C.3       1 PXY1        0.0000
     12 H11         2.3720    4.1090   -1.0620 H         1 PXY1        0.0000
     13 H12         3.1720    3.6820    0.5150 H         1 PXY1        0.0000
     14 H13         1.6030    4.5880    0.5150 H         1 PXY1        0.0000
     15 C2         -0.7050   -1.2220    0.0070 C.3       1 PXY1        0.0000
     16 H21        -0.8780   -1.5210    1.0630 H         1 PXY1        0.0000
     17 H22        -0.1100   -2.0010   -0.5140 H         1 PXY1        0.0000
     18 H23        -1.6780   -1.0960   -0.5140 H         1 PXY1        0.0000
@<TRIPOS>BOND
     1   12   11 1 
     2   17   15 1 
     3   18   15 1 
     4   11   10 1 
     5   11   13 1 
     6   11   14 1 
     7    1    2 ar
     8    1    4 ar
     9    1   15 1 
    10    2    6 ar
    11    2    3 1 
    12    4    8 ar
    13    4    5 1 
    14    7    6 1 
    15    9    8 1 
    16    6   10 ar
    17    8   10 ar
    18   15   16 1 
