@<TRIPOS>MOLECULE
C:\Users\Praveer\PycharmProjects\pdb_to_mol2_converter\data\pdb\py01.pdb
   12    12     0     0     0
SMALL
GASTEIGER

@<TRIPOS>ATOM
      1 O1          1.2300    0.0730    0.0000 O.2       1 PY01        0.0000
      2 C2          1.5500    1.4160   -0.0000 C.2       1 PY01        0.0000
      3 H21         2.6370    1.5880   -0.0000 H         1 PY01        0.0000
      4 C3          0.6590    2.4150   -0.0000 C.2       1 PY01        0.0000
      5 H31         0.9780    3.4680   -0.0000 H         1 PY01        0.0000
      6 C4         -0.8360    2.1070   -0.0000 C.3       1 PY01        0.0000
      7 H41        -1.3090    2.5740   -0.8910 H         1 PY01        0.0000
      8 H42        -1.3090    2.5740    0.8910 H         1 PY01        0.0000
      9 C5         -1.1200    0.6080   -0.0000 C.2       1 PY01        0.0000
     10 H51        -2.1680    0.2730   -0.0000 H         1 PY01        0.0000
     11 C6         -0.1070   -0.2670    0.0000 C.2       1 PY01        0.0000
     12 H61        -0.2620   -1.3570   -0.0000 H         1 PY01        0.0000
@<TRIPOS>BOND
     1    7    6 1 
     2    1    2 1 
     3    1   11 1 
     4    2    3 1 
     5    2    4 2 
     6    4    5 1 
     7    4    6 1 
     8    6    9 1 
     9    6    8 1 
    10    9   10 1 
    11    9   11 2 
    12   11   12 1 
