@<TRIPOS>MOLECULE
C:\Users\Praveer\PycharmProjects\pdb_to_mol2_converter\data\pdb\py02.pdb
   12    12     0     0     0
SMALL
GASTEIGER

@<TRIPOS>ATOM
      1 O1          1.2840    0.0630   -0.2420 O.2       1 PY01        0.0000
      2 C2          1.5320    1.4530    0.0680 C.3       1 PY01        0.0000
      3 H21         1.2790    2.1080   -0.7980 H         1 PY01        0.0000
      4 H22         2.6160    1.6030    0.2660 H         1 PY01        0.0000
      5 C3          0.7130    1.8710    1.2880 C.2       1 PY01        0.0000
      6 H31         1.0800    2.6820    1.9340 H         1 PY01        0.0000
      7 C4         -0.5010    1.2970    1.4590 C.2       1 PY01        0.0000
      8 H41        -1.1590    1.6010    2.2880 H         1 PY01        0.0000
      9 C5         -0.9470    0.2520    0.5130 C.2       1 PY01        0.0000
     10 H51        -2.0110   -0.0240    0.4900 H         1 PY01        0.0000
     11 C6         -0.0380   -0.2550   -0.3570 C.2       1 PY01        0.0000
     12 H61        -0.2810   -1.0300   -1.1000 H         1 PY01        0.0000
@<TRIPOS>BOND
     1   12   11 1 
     2    3    2 1 
     3   11    1 1 
     4   11    9 2 
     5    1    2 1 
     6    2    4 1 
     7    2    5 1 
     8   10    9 1 
     9    9    7 1 
    10    5    7 2 
    11    5    6 1 
    12    7    8 1 
