@<TRIPOS>MOLECULE
C:\Users\Praveer\PycharmProjects\pdb_to_mol2_converter\data\pdb\pymu.pdb
   19    19     0     0     0
SMALL
GASTEIGER

@<TRIPOS>ATOM
      1 N1          1.3560    0.0020   -0.0000 N.ar      1 PYM1        0.0000
      2 C2          1.9880    1.2050   -0.0000 C.ar      1 PYM1        0.0000
      3 H2          3.0800    1.2000    0.0000 H         1 PYM1        0.0000
      4 N3          1.3590    2.4220   -0.0000 N.ar      1 PYM1        0.0000
      5 C4          0.0270    2.3910   -0.0000 C.ar      1 PYM1        0.0000
      6 H4         -0.4830    3.3500   -0.0000 H         1 PYM1        0.0000
      7 C5         -0.7240    1.2010   -0.0000 C.ar      1 PYM1        0.0000
      8 H5         -1.7980    1.2140   -0.0000 H         1 PYM1        0.0000
      9 C6          0.0000    0.0020   -0.0000 C.ar      1 PYM1        0.0000
     10 N6         -0.7860   -1.1690   -0.0000 N.am      1 PYM1        0.0000
     11 H6         -1.7560   -1.0110    0.0000 H         1 PYM1        0.0000
     12 C7         -0.3440   -2.4570    0.0010 C.2       1 PYM1        0.0000
     13 O7          0.8100   -2.8570    0.0000 O.2       1 PYM1        0.0000
     14 N8         -1.4030   -3.3190    0.0010 N.am      1 PYM1        0.0000
     15 H8         -2.3310   -2.9730    0.0000 H         1 PYM1        0.0000
     16 C9         -1.2020   -4.7480    0.0030 C.3       1 PYM1        0.0000
     17 H91        -0.6280   -5.0620    0.9050 H         1 PYM1        0.0000
     18 H92        -0.6280   -5.0640   -0.8980 H         1 PYM1        0.0000
     19 H93        -2.1770   -5.2820    0.0040 H         1 PYM1        0.0000
@<TRIPOS>BOND
     1   18   16 1 
     2    1    2 ar
     3    1    9 ar
     4    2    3 1 
     5    2    4 ar
     6    4    5 ar
     7    5    6 1 
     8    5    7 ar
     9    7    8 1 
    10    7    9 ar
    11    9   10 1 
    12   10   11 1 
    13   10   12 am
    14   13   12 2 
    15   15   14 1 
    16   12   14 am
    17   14   16 1 
    18   16   19 1 
    19   16   17 1 
