@<TRIPOS>MOLECULE
C:\Users\Praveer\PycharmProjects\pdb_to_mol2_converter\data\pdb\pyo2b.pdb
   22    23     0     0     0
SMALL
GASTEIGER

@<TRIPOS>ATOM
      1 C1         -0.0740    0.0600   -0.0580 C.ar      1 PYO1        0.0000
      2 C2          1.3480    0.0280   -0.0670 C.ar      1 PYO1        0.0000
      3 C3          2.1390    1.1930   -0.0080 C.ar      1 PYO1        0.0000
      4 C4          1.4540    2.4210    0.0570 C.ar      1 PYO1        0.0000
      5 C5          0.0870    2.4570    0.0660 C.ar      1 PYO1        0.0000
      6 N6         -0.6590    1.3180    0.0120 N.ar      1 PYO1        0.0000
      7 C9          4.3130    0.2000    0.8230 C.ar      1 PYO1        0.0000
      8 C10         5.7140    0.1310    0.8270 C.ar      1 PYO1        0.0000
      9 C11         6.4590    0.9820    0.0020 C.ar      1 PYO1        0.0000
     10 C12         5.8070    1.9040   -0.8280 C.ar      1 PYO1        0.0000
     11 C13         4.4060    1.9750   -0.8320 C.ar      1 PYO1        0.0000
     12 C8          3.6430    1.1230   -0.0070 C.ar      1 PYO1        0.0000
     13 O7         -0.8020   -0.9270   -0.1060 O.2       1 PYO1        0.0000
     14 H2          1.8270   -0.9460   -0.1260 H         1 PYO1        0.0000
     15 H4          2.0230    3.3490    0.1110 H         1 PYO1        0.0000
     16 H5         -0.4500    3.4040    0.1230 H         1 PYO1        0.0000
     17 H6         -1.6650    1.3060    0.0180 H         1 PYO1        0.0000
     18 H9          3.7480   -0.4580    1.4670 H         1 PYO1        0.0000
     19 H10         6.2170   -0.5800    1.4670 H         1 PYO1        0.0000
     20 H11         7.5380    0.9260    0.0040 H         1 PYO1        0.0000
     21 H12         6.3840    2.5570   -1.4660 H         1 PYO1        0.0000
     22 H13         3.9140    2.6850   -1.4810 H         1 PYO1        0.0000
@<TRIPOS>BOND
     1   22   11 1 
     2   21   10 1 
     3   11   10 ar
     4   11   12 ar
     5   10    9 ar
     6   14    2 1 
     7   13    1 2 
     8    2    1 ar
     9    2    3 ar
    10    1    6 ar
    11    3   12 1 
    12    3    4 ar
    13   12    7 ar
    14    9   20 1 
    15    9    8 ar
    16    6   17 1 
    17    6    5 ar
    18    4    5 ar
    19    4   15 1 
    20    5   16 1 
    21    7    8 ar
    22    7   18 1 
    23    8   19 1 
