@<TRIPOS>MOLECULE
C:\Users\Praveer\PycharmProjects\pdb_to_mol2_converter\data\pdb\pyo2f.pdb
   22    23     0     0     0
SMALL
GASTEIGER

@<TRIPOS>ATOM
      1 C1         -0.0900    0.0800   -0.0830 C.ar      1 PYO1        0.0000
      2 C2          1.3310    0.0220   -0.0510 C.ar      1 PYO1        0.0000
      3 C3          2.1440    1.1730    0.0200 C.ar      1 PYO1        0.0000
      4 C4          1.4740    2.4140    0.0630 C.ar      1 PYO1        0.0000
      5 C5          0.1090    2.4730    0.0390 C.ar      1 PYO1        0.0000
      6 N6         -0.6540    1.3480   -0.0340 N.ar      1 PYO1        0.0000
      7 O7         -0.8350   -0.8940   -0.1480 O.2       1 PYO1        0.0000
      8 C8          3.6540    1.0780    0.0430 C.ar      1 PYO1        0.0000
      9 C9          4.3520    0.1510    0.8580 C.ar      1 PYO1        0.0000
     10 C10         5.7420    0.0780    0.8590 C.ar      1 PYO1        0.0000
     11 C11         6.4770    0.9380    0.0340 C.ar      1 PYO1        0.0000
     12 C12         5.8150    1.8610   -0.7810 C.ar      1 PYO1        0.0000
     13 C13         4.4160    1.9350   -0.7790 C.ar      1 PYO1        0.0000
     14 H2          1.7900   -0.9650   -0.0730 H         1 PYO1        0.0000
     15 H4          2.0530    3.3360    0.1240 H         1 PYO1        0.0000
     16 H5         -0.4140    3.4300    0.0790 H         1 PYO1        0.0000
     17 H6         -1.6600    1.3530   -0.0520 H         1 PYO1        0.0000
     18 F9          3.6940   -0.7040    1.6880 F         1 PYO1        0.0000
     19 H10         6.2450   -0.6370    1.4930 H         1 PYO1        0.0000
     20 H11         7.5570    0.8870    0.0250 H         1 PYO1        0.0000
     21 H12         6.3880    2.5220   -1.4180 H         1 PYO1        0.0000
     22 H13         3.9240    2.6490   -1.4230 H         1 PYO1        0.0000
@<TRIPOS>BOND
     1   22   13 1 
     2   21   12 1 
     3   12   13 ar
     4   12   11 ar
     5   13    8 ar
     6    7    1 2 
     7    1    2 ar
     8    1    6 ar
     9   14    2 1 
    10   17    6 1 
    11    2    3 ar
    12    6    5 ar
    13    3    8 1 
    14    3    4 ar
    15   20   11 1 
    16   11   10 ar
    17    5    4 ar
    18    5   16 1 
    19    8    9 ar
    20    4   15 1 
    21    9   10 ar
    22    9   18 1 
    23   10   19 1 
