@<TRIPOS>MOLECULE
C:\Users\Praveer\PycharmProjects\pdb_to_mol2_converter\data\pdb\pyo3b.pdb
   22    23     0     0     0
SMALL
GASTEIGER

@<TRIPOS>ATOM
      1 N1         -0.0840   -0.0700    0.0000 N.ar      1 PYO1        0.0000
      2 C2          1.2750    0.0060    0.0000 C.ar      1 PYO1        0.0000
      3 C3          1.9370    1.2540   -0.0000 C.ar      1 PYO1        0.0000
      4 C4          1.1110    2.4030   -0.0000 C.ar      1 PYO1        0.0000
      5 C5         -0.2620    2.3230    0.0000 C.ar      1 PYO1        0.0000
      6 C6         -0.9010    1.0490    0.0000 C.ar      1 PYO1        0.0000
      7 C9          4.2730    0.1870   -0.0000 C.ar      1 PYO1        0.0000
      8 C10         5.6740    0.2760   -0.0000 C.ar      1 PYO1        0.0000
      9 C11         6.2940    1.5280   -0.0000 C.ar      1 PYO1        0.0000
     10 C12         5.5200    2.6920   -0.0000 C.ar      1 PYO1        0.0000
     11 C13         4.1200    2.6020   -0.0000 C.ar      1 PYO1        0.0000
     12 C8          3.4590    1.3480   -0.0000 C.ar      1 PYO1        0.0000
     13 H2          1.8210   -0.9350   -0.0000 H         1 PYO1        0.0000
     14 H4          1.5680    3.3920   -0.0000 H         1 PYO1        0.0000
     15 H5         -0.8900    3.2140   -0.0000 H         1 PYO1        0.0000
     16 O7         -2.1180    0.8810    0.0000 O.2       1 PYO1        0.0000
     17 H9          3.8380   -0.8010   -0.0000 H         1 PYO1        0.0000
     18 H10         6.2740   -0.6230   -0.0000 H         1 PYO1        0.0000
     19 H11         7.3730    1.5970   -0.0000 H         1 PYO1        0.0000
     20 H12         6.0000    3.6600   -0.0000 H         1 PYO1        0.0000
     21 H13         3.5600    3.5250   -0.0000 H         1 PYO1        0.0000
     22 H1         -0.5900   -0.9400    0.0000 H         1 PYO1        0.0000
@<TRIPOS>BOND
     1    1    2 ar
     2    1    6 ar
     3    1   22 1 
     4    2    3 ar
     5    2   13 1 
     6    3    4 ar
     7    3   12 1 
     8    4    5 ar
     9    4   14 1 
    10    5    6 ar
    11    5   15 1 
    12    6   16 2 
    13    7    8 ar
    14    7   12 ar
    15    7   17 1 
    16    8    9 ar
    17    8   18 1 
    18    9   10 ar
    19    9   19 1 
    20   10   11 ar
    21   10   20 1 
    22   11   12 ar
    23   11   21 1 
