@<TRIPOS>MOLECULE
C:\Users\Praveer\PycharmProjects\pdb_to_mol2_converter\data\pdb\pyo3f.pdb
   22    23     0     0     0
SMALL
GASTEIGER

@<TRIPOS>ATOM
      1 N1         -0.1300   -0.0420    0.0000 N.ar      1 PYO1        0.0000
      2 C2          1.2300   -0.0130    0.0000 C.ar      1 PYO1        0.0000
      3 C3          1.9450    1.2090   -0.0000 C.ar      1 PYO1        0.0000
      4 C4          1.1470    2.3850   -0.0000 C.ar      1 PYO1        0.0000
      5 C5         -0.2280    2.3520   -0.0000 C.ar      1 PYO1        0.0000
      6 C6         -0.9090    1.1030    0.0000 C.ar      1 PYO1        0.0000
      7 O7         -2.1300    0.9760    0.0000 O.2       1 PYO1        0.0000
      8 C8          3.4790    1.2680   -0.0000 C.ar      1 PYO1        0.0000
      9 C9          4.3370    0.1250   -0.0000 C.ar      1 PYO1        0.0000
     10 C10         5.7230    0.2300   -0.0000 C.ar      1 PYO1        0.0000
     11 C11         6.3230    1.4910   -0.0000 C.ar      1 PYO1        0.0000
     12 C12         5.5280    2.6360   -0.0000 C.ar      1 PYO1        0.0000
     13 C13         4.1310    2.5300   -0.0000 C.ar      1 PYO1        0.0000
     14 H1         -0.6630   -0.8950    0.0000 H         1 PYO1        0.0000
     15 H2          1.7190   -0.9830    0.0000 H         1 PYO1        0.0000
     16 H4          1.6230    3.3660   -0.0000 H         1 PYO1        0.0000
     17 H5         -0.8260    3.2630   -0.0000 H         1 PYO1        0.0000
     18 F9          3.8670   -1.1500   -0.0000 F         1 PYO1        0.0000
     19 H10         6.3320   -0.6620   -0.0000 H         1 PYO1        0.0000
     20 H11         7.4010    1.5790   -0.0000 H         1 PYO1        0.0000
     21 H12         5.9950    3.6120   -0.0000 H         1 PYO1        0.0000
     22 H13         3.5720    3.4520   -0.0000 H         1 PYO1        0.0000
@<TRIPOS>BOND
     1    1    2 ar
     2    1    6 ar
     3    1   14 1 
     4    2    3 ar
     5    2   15 1 
     6    3    4 ar
     7    3    8 1 
     8    4    5 ar
     9    4   16 1 
    10    5    6 ar
    11    5   17 1 
    12    6    7 2 
    13    8    9 ar
    14    8   13 ar
    15    9   10 ar
    16    9   18 1 
    17   10   11 ar
    18   10   19 1 
    19   11   12 ar
    20   11   20 1 
    21   12   13 ar
    22   12   21 1 
    23   13   22 1 
