@<TRIPOS>MOLECULE
C:\Users\Praveer\PycharmProjects\pdb_to_mol2_converter\data\pdb\pype.pdb
  119   118     0     0     0
SMALL
GASTEIGER

@<TRIPOS>ATOM
      1 N          -0.0030   -0.0280    0.1630 N.4       1 PYP1        0.0000
      2 HN1        -0.1250   -0.4710    1.1120 H         1 PYP1        0.0000
      3 HN2        -0.5930   -0.5100   -0.5350 H         1 PYP1        0.0000
      4 HN3        -0.3260    0.9820    0.2590 H         1 PYP1        0.0000
      5 C12         1.4650    0.0170   -0.1840 C.3       1 PYP1        0.0000
      6 H12A        1.5880   -0.3530   -1.2210 H         1 PYP1        0.0000
      7 H12B        1.9880   -0.6690    0.5140 H         1 PYP1        0.0000
      8 C11         2.0420    1.4430   -0.0460 C.3       1 PYP1        0.0000
      9 H11A        1.6670    2.0880   -0.8800 H         1 PYP1        0.0000
     10 H11B        3.1480    1.3850   -0.1760 H         1 PYP1        0.0000
     11 P           0.5720    3.0290    1.4310 P.3       1 PYP1        0.0000
     12 O13         1.0690    4.3990    1.2290 O.3       1 PYP1        0.0000
     13 O14        -0.5120    2.5170    0.5570 O.2       1 PYP1        0.0000
     14 O11         0.1540    2.7780    2.9260 O.3       1 PYP1        0.0000
     15 O12         1.7690    1.9990    1.2450 O.3       1 PYP1        0.0000
     16 C1          1.0730    2.5480    3.9900 C.3       1 PYP1        0.0000
     17 HA          0.8410    3.2810    4.7960 H         1 PYP1        0.0000
     18 HB          2.1400    2.7060    3.7080 H         1 PYP1        0.0000
     19 C2          0.8710    1.1240    4.5660 C.3       1 PYP1        0.0000
     20 HS         -0.1980    0.8670    4.3650 H         1 PYP1        0.0000
     21 O21         1.1470    1.1560    5.9790 O.3       1 PYP1        0.0000
     22 C21         0.4880    0.2560    6.6920 C.2       1 PYP1        0.0000
     23 O22        -0.3790   -0.4940    6.2770 O.2       1 PYP1        0.0000
     24 C22         1.0030    0.2990    8.1300 C.3       1 PYP1        0.0000
     25 H2R         0.8630    1.3290    8.5160 H         1 PYP1        0.0000
     26 H2S         2.0890    0.0740    8.1030 H         1 PYP1        0.0000
     27 C3          1.7850    0.0790    3.8600 C.3       1 PYP1        0.0000
     28 HX          2.8300    0.2950    4.1740 H         1 PYP1        0.0000
     29 HY          1.7490    0.2330    2.7630 H         1 PYP1        0.0000
     30 O31         1.4590   -1.2770    4.2270 O.3       1 PYP1        0.0000
     31 C31         0.4700   -1.8350    3.5390 C.2       1 PYP1        0.0000
     32 O32        -0.0240   -1.3800    2.5160 O.2       1 PYP1        0.0000
     33 C32         0.0920   -3.1600    4.1980 C.3       1 PYP1        0.0000
     34 H2X         0.1030   -3.0060    5.2990 H         1 PYP1        0.0000
     35 H2Y         0.8700   -3.9060    3.9380 H         1 PYP1        0.0000
     36 C23         0.2830   -0.7160    9.0440 C.3       1 PYP1        0.0000
     37 H3R         0.3650   -1.7390    8.6100 H         1 PYP1        0.0000
     38 H3S        -0.8010   -0.4640    9.1050 H         1 PYP1        0.0000
     39 C24         0.8730   -0.7420   10.4610 C.3       1 PYP1        0.0000
     40 H4R         0.8100    0.2760   10.9070 H         1 PYP1        0.0000
     41 H4S         1.9490   -1.0200   10.4010 H         1 PYP1        0.0000
     42 C25         0.1500   -1.7370   11.3780 C.3       1 PYP1        0.0000
     43 H5R         0.1800   -2.7480   10.9130 H         1 PYP1        0.0000
     44 H5S        -0.9180   -1.4400   11.4710 H         1 PYP1        0.0000
     45 C26         0.7750   -1.8160   12.7780 C.3       1 PYP1        0.0000
     46 H6R         0.7550   -0.8070   13.2470 H         1 PYP1        0.0000
     47 H6S         1.8400   -2.1250   12.6840 H         1 PYP1        0.0000
     48 C27         0.0420   -2.8090   13.6910 C.3       1 PYP1        0.0000
     49 H7R         0.0340   -3.8070   13.1980 H         1 PYP1        0.0000
     50 H7S        -1.0150   -2.4760   13.8030 H         1 PYP1        0.0000
     51 C28         0.6960   -2.9220   15.0810 C.3       1 PYP1        0.0000
     52 H8R         0.7300   -1.9010   15.5230 H         1 PYP1        0.0000
     53 H8S         1.7500   -3.2520   14.9500 H         1 PYP1        0.0000
     54 C29        -0.0460   -3.9000   15.9600 C.2       1 PYP1        0.0000
     55 H9R        -0.1290   -4.9170   15.5470 H         1 PYP1        0.0000
     56 C210       -0.6210   -3.6360   17.1490 C.2       1 PYP1        0.0000
     57 H10R       -1.1470   -4.4470   17.6750 H         1 PYP1        0.0000
     58 C211       -0.6170   -2.3090   17.8690 C.3       1 PYP1        0.0000
     59 H11R        0.3040   -1.7270   17.6420 H         1 PYP1        0.0000
     60 H11S       -0.6200   -2.4750   18.9690 H         1 PYP1        0.0000
     61 C212       -1.8350   -1.4450   17.4960 C.3       1 PYP1        0.0000
     62 H12R       -2.7750   -1.9880   17.7440 H         1 PYP1        0.0000
     63 H12S       -1.8320   -1.2570   16.3970 H         1 PYP1        0.0000
     64 C213       -1.8360   -0.0930   18.2240 C.3       1 PYP1        0.0000
     65 H13R       -0.8950    0.4490   17.9820 H         1 PYP1        0.0000
     66 H13S       -1.8520   -0.2710   19.3230 H         1 PYP1        0.0000
     67 C214       -3.0340    0.7850   17.8380 C.3       1 PYP1        0.0000
     68 H14R       -3.9760    0.2440   18.0790 H         1 PYP1        0.0000
     69 H14S       -3.0170    0.9600   16.7390 H         1 PYP1        0.0000
     70 C215       -3.0330    2.1390   18.5610 C.3       1 PYP1        0.0000
     71 H15R       -2.0820    2.6700   18.3240 H         1 PYP1        0.0000
     72 H15S       -3.0490    1.9580   19.6600 H         1 PYP1        0.0000
     73 C216       -4.2160    3.0310   18.1790 C.3       1 PYP1        0.0000
     74 H16R       -5.1770    2.5310   18.4280 H         1 PYP1        0.0000
     75 H16S       -4.2050    3.2460   17.0890 H         1 PYP1        0.0000
     76 H16T       -4.1700    3.9970   18.7280 H         1 PYP1        0.0000
     77 C33        -1.3020   -3.6720    3.7710 C.3       1 PYP1        0.0000
     78 H3X        -1.3440   -3.8050    2.6660 H         1 PYP1        0.0000
     79 H3Y        -2.0750   -2.9210    4.0540 H         1 PYP1        0.0000
     80 C34        -1.6490   -5.0070    4.4440 C.3       1 PYP1        0.0000
     81 H4X        -1.5730   -4.8850    5.5490 H         1 PYP1        0.0000
     82 H4Y        -0.9060   -5.7770    4.1390 H         1 PYP1        0.0000
     83 C35        -3.0590   -5.5060    4.1010 C.3       1 PYP1        0.0000
     84 H5X        -3.1540   -5.6210    2.9980 H         1 PYP1        0.0000
     85 H5Y        -3.8040   -4.7460    4.4290 H         1 PYP1        0.0000
     86 C36        -3.3820   -6.8460    4.7770 C.3       1 PYP1        0.0000
     87 H6X        -3.2710   -6.7330    5.8790 H         1 PYP1        0.0000
     88 H6Y        -2.6450   -7.6100    4.4410 H         1 PYP1        0.0000
     89 C37        -4.8000   -7.3480    4.4700 C.3       1 PYP1        0.0000
     90 H7X        -4.9190   -7.4570    3.3690 H         1 PYP1        0.0000
     91 H7Y        -5.5380   -6.5920    4.8180 H         1 PYP1        0.0000
     92 C38        -5.1010   -8.6940    5.1450 C.3       1 PYP1        0.0000
     93 H8X        -4.9700   -8.5860    6.2450 H         1 PYP1        0.0000
     94 H8Y        -4.3640   -9.4500    4.7900 H         1 PYP1        0.0000
     95 C39        -6.5190   -9.2050    4.8580 C.3       1 PYP1        0.0000
     96 H9X        -6.6540   -9.3110    3.7580 H         1 PYP1        0.0000
     97 H9Y        -7.2570   -8.4540    5.2180 H         1 PYP1        0.0000
     98 C310       -6.8060  -10.5550    5.5310 C.3       1 PYP1        0.0000
     99 H10X       -6.6640  -10.4500    6.6310 H         1 PYP1        0.0000
    100 H10Y       -6.0710  -11.3070    5.1660 H         1 PYP1        0.0000
    101 C311       -8.2260  -11.0650    5.2560 C.3       1 PYP1        0.0000
    102 H11X       -8.3700  -11.1680    4.1570 H         1 PYP1        0.0000
    103 H11Y       -8.9610  -10.3150    5.6250 H         1 PYP1        0.0000
    104 C312       -8.5100  -12.4170    5.9270 C.3       1 PYP1        0.0000
    105 H12X       -8.3620  -12.3160    7.0250 H         1 PYP1        0.0000
    106 H12Y       -7.7790  -13.1690    5.5540 H         1 PYP1        0.0000
    107 C313       -9.9330  -12.9250    5.6570 C.3       1 PYP1        0.0000
    108 H13X      -10.0830  -13.0240    4.5590 H         1 PYP1        0.0000
    109 H13Y      -10.6650  -12.1740    6.0320 H         1 PYP1        0.0000
    110 C314      -10.2140  -14.2770    6.3280 C.3       1 PYP1        0.0000
    111 H14X      -10.0610  -14.1780    7.4260 H         1 PYP1        0.0000
    112 H14Y       -9.4830  -15.0280    5.9520 H         1 PYP1        0.0000
    113 C315      -11.6360  -14.7870    6.0650 C.3       1 PYP1        0.0000
    114 H15X      -11.7870  -14.8790    4.9650 H         1 PYP1        0.0000
    115 H15Y      -12.3640  -14.0300    6.4380 H         1 PYP1        0.0000
    116 C316      -11.9290  -16.1360    6.7270 C.3       1 PYP1        0.0000
    117 H16X      -11.8080  -16.0620    7.8300 H         1 PYP1        0.0000
    118 H16Y      -11.2300  -16.9140    6.3500 H         1 PYP1        0.0000
    119 H16Z      -12.9680  -16.4620    6.5090 H         1 PYP1        0.0000
@<TRIPOS>BOND
     1    6    5 1 
     2    9    8 1 
     3    3    1 1 
     4    5    8 1 
     5    5    1 1 
     6    5    7 1 
     7   10    8 1 
     8    8   15 1 
     9    1    4 1 
    10    1    2 1 
    11   13   11 2 
    12   12   11 1 
    13   15   11 1 
    14   11   14 1 
    15   32   31 2 
    16   78   77 1 
    17   29   27 1 
    18   14   16 1 
    19   84   83 1 
    20   90   89 1 
    21   31   33 1 
    22   31   30 1 
    23   18   16 1 
    24   96   95 1 
    25   77   79 1 
    26   77   33 1 
    27   77   80 1 
    28   27   28 1 
    29   27   30 1 
    30   27   19 1 
    31   35   33 1 
    32   16   19 1 
    33   16   17 1 
    34   83   85 1 
    35   83   80 1 
    36   83   86 1 
    37   82   80 1 
    38  102  101 1 
    39   33   34 1 
    40   20   19 1 
    41   88   86 1 
    42   80   81 1 
    43   89   86 1 
    44   89   91 1 
    45   89   92 1 
    46  108  107 1 
    47   19   21 1 
    48   86   87 1 
    49   94   92 1 
    50   95   92 1 
    51   95   97 1 
    52   95   98 1 
    53  114  113 1 
    54   92   93 1 
    55  100   98 1 
    56  101   98 1 
    57  101  103 1 
    58  101  104 1 
    59   98   99 1 
    60  106  104 1 
    61  107  104 1 
    62  107  109 1 
    63  107  110 1 
    64  104  105 1 
    65  112  110 1 
    66   21   22 1 
    67  113  110 1 
    68  113  115 1 
    69  113  116 1 
    70   23   22 2 
    71  110  111 1 
    72  118  116 1 
    73  119  116 1 
    74   22   24 1 
    75  116  117 1 
    76   26   24 1 
    77   24   25 1 
    78   24   36 1 
    79   37   36 1 
    80   36   38 1 
    81   36   39 1 
    82   41   39 1 
    83   39   40 1 
    84   39   42 1 
    85   43   42 1 
    86   42   44 1 
    87   42   45 1 
    88   47   45 1 
    89   45   46 1 
    90   45   48 1 
    91   49   48 1 
    92   48   50 1 
    93   48   51 1 
    94   53   51 1 
    95   51   52 1 
    96   51   54 1 
    97   55   54 1 
    98   54   56 2 
    99   63   61 1 
   100   69   67 1 
   101   75   73 1 
   102   56   57 1 
   103   56   58 1 
   104   61   62 1 
   105   61   58 1 
   106   61   64 1 
   107   59   58 1 
   108   67   68 1 
   109   67   64 1 
   110   67   70 1 
   111   58   60 1 
   112   65   64 1 
   113   73   74 1 
   114   73   70 1 
   115   73   76 1 
   116   64   66 1 
   117   71   70 1 
   118   70   72 1 
