@<TRIPOS>MOLECULE
C:\Users\Praveer\PycharmProjects\pdb_to_mol2_converter\data\pdb\pypi.pdb
  131   131     0     0     0
SMALL
GASTEIGER

@<TRIPOS>ATOM
      1 C12         1.4920   -0.1190    0.1090 C.3       1 PYP1        0.0000
      2 H2          1.8150   -0.6220   -0.8380 H         1 PYP1        0.0000
      3 O2          2.0730    1.1790    0.1320 O.3       1 PYP1        0.0000
      4 HO2         1.4970    1.6850   -0.4610 H         1 PYP1        0.0000
      5 C13         1.9870   -0.9380    1.2780 C.3       1 PYP1        0.0000
      6 H3          1.6290   -1.9830    1.1050 H         1 PYP1        0.0000
      7 O3          3.4140   -0.9800    1.3080 O.3       1 PYP1        0.0000
      8 HO3         3.6920   -0.1040    1.0050 H         1 PYP1        0.0000
      9 C14         1.4190   -0.4980    2.6180 C.3       1 PYP1        0.0000
     10 H4          1.9420    0.4580    2.8800 H         1 PYP1        0.0000
     11 O4          1.7500   -1.4550    3.6260 O.3       1 PYP1        0.0000
     12 HO4         2.7060   -1.5690    3.6020 H         1 PYP1        0.0000
     13 C15        -0.0670   -0.1520    2.6060 C.3       1 PYP1        0.0000
     14 H5         -0.6020   -1.1370    2.5910 H         1 PYP1        0.0000
     15 O5         -0.4840    0.5270    3.7900 O.3       1 PYP1        0.0000
     16 HO5        -1.4120    0.7510    3.6400 H         1 PYP1        0.0000
     17 C16        -0.5480    0.6000    1.3740 C.3       1 PYP1        0.0000
     18 H6         -0.1680    1.6490    1.4420 H         1 PYP1        0.0000
     19 O6         -1.9740    0.6630    1.3760 O.3       1 PYP1        0.0000
     20 HO6        -2.3070    0.4290    0.4830 H         1 PYP1        0.0000
     21 C11        -0.0160   -0.0070    0.0920 C.3       1 PYP1        0.0000
     22 H1         -0.4050   -1.0580    0.0270 H         1 PYP1        0.0000
     23 P          -1.6190    0.2920   -2.0190 P.3       1 PYP1        0.0000
     24 O13        -2.7420   -0.0280   -1.1100 O.3       1 PYP1        0.0000
     25 O14        -1.1530   -0.7550   -2.9470 O.2       1 PYP1        0.0000
     26 O12        -0.3550    0.7690   -1.0700 O.3       1 PYP1        0.0000
     27 O11        -1.9400    1.6310   -2.8060 O.3       1 PYP1        0.0000
     28 C1         -3.2270    2.2320   -2.6470 C.3       1 PYP1        0.0000
     29 HA         -3.4770    2.4060   -1.5730 H         1 PYP1        0.0000
     30 HB         -4.0080    1.5660   -3.0830 H         1 PYP1        0.0000
     31 C2         -3.2920    3.5880   -3.3950 C.3       1 PYP1        0.0000
     32 HS         -2.7780    4.3650   -2.7800 H         1 PYP1        0.0000
     33 O21        -4.6750    3.9120   -3.6370 O.3       1 PYP1        0.0000
     34 C21        -5.3240    4.3330   -2.5620 C.2       1 PYP1        0.0000
     35 O22        -4.8210    4.6630   -1.5050 O.2       1 PYP1        0.0000
     36 C22        -6.8270    4.2970   -2.8350 C.3       1 PYP1        0.0000
     37 H2R        -7.3020    3.7710   -1.9800 H         1 PYP1        0.0000
     38 H2S        -7.0140    3.7080   -3.7550 H         1 PYP1        0.0000
     39 C3         -2.5450    3.5270   -4.7550 C.3       1 PYP1        0.0000
     40 HX         -3.0740    2.7810   -5.3940 H         1 PYP1        0.0000
     41 HY         -1.5090    3.1610   -4.5720 H         1 PYP1        0.0000
     42 O31        -2.5060    4.8320   -5.3750 O.3       1 PYP1        0.0000
     43 C31        -1.9920    4.8140   -6.5980 C.2       1 PYP1        0.0000
     44 O32        -1.6000    3.8250   -7.1900 O.2       1 PYP1        0.0000
     45 C32        -1.9620    6.2420   -7.1390 C.3       1 PYP1        0.0000
     46 H2X        -1.3190    6.8450   -6.4650 H         1 PYP1        0.0000
     47 H2Y        -2.9950    6.6440   -7.0980 H         1 PYP1        0.0000
     48 C23        -7.4320    5.7080   -2.9750 C.3       1 PYP1        0.0000
     49 H3R        -6.9230    6.2540   -3.8030 H         1 PYP1        0.0000
     50 H3S        -7.2710    6.2850   -2.0350 H         1 PYP1        0.0000
     51 C24        -8.9340    5.6490   -3.2770 C.3       1 PYP1        0.0000
     52 H4R        -9.4560    5.1210   -2.4480 H         1 PYP1        0.0000
     53 H4S        -9.0940    5.0590   -4.2070 H         1 PYP1        0.0000
     54 C25        -9.5540    7.0400   -3.4570 C.3       1 PYP1        0.0000
     55 H5R        -9.0050    7.5810   -4.2600 H         1 PYP1        0.0000
     56 H5S        -9.4340    7.6200   -2.5150 H         1 PYP1        0.0000
     57 C26       -11.0400    6.9750   -3.8270 C.3       1 PYP1        0.0000
     58 H6R       -11.5950    6.4350   -3.0270 H         1 PYP1        0.0000
     59 H6S       -11.1550    6.3950   -4.7700 H         1 PYP1        0.0000
     60 C27       -11.6560    8.3670   -4.0170 C.3       1 PYP1        0.0000
     61 H7R       -11.0690    8.9140   -4.7890 H         1 PYP1        0.0000
     62 H7S       -11.5660    8.9290   -3.0590 H         1 PYP1        0.0000
     63 C28       -13.1350    8.3000   -4.4390 C.3       1 PYP1        0.0000
     64 H8R       -13.6790    7.7090   -3.6690 H         1 PYP1        0.0000
     65 H8S       -13.2070    7.7320   -5.3930 H         1 PYP1        0.0000
     66 C29       -13.7160    9.6830   -4.6140 C.2       1 PYP1        0.0000
     67 H9R       -13.1940   10.3090   -5.3550 H         1 PYP1        0.0000
     68 C210      -14.7580   10.2050   -3.9430 C.2       1 PYP1        0.0000
     69 H10R      -15.0650   11.2400   -4.1600 H         1 PYP1        0.0000
     70 C211      -15.5860    9.5030   -2.8950 C.3       1 PYP1        0.0000
     71 H11R      -15.6390    8.4080   -3.0870 H         1 PYP1        0.0000
     72 H11S      -16.6340    9.8760   -2.9280 H         1 PYP1        0.0000
     73 C212      -15.0300    9.7150   -1.4750 C.3       1 PYP1        0.0000
     74 H12R      -15.0010   10.8030   -1.2400 H         1 PYP1        0.0000
     75 H12S      -13.9870    9.3290   -1.4250 H         1 PYP1        0.0000
     76 C213      -15.8720    9.0000   -0.4090 C.3       1 PYP1        0.0000
     77 H13R      -15.9080    7.9120   -0.6450 H         1 PYP1        0.0000
     78 H13S      -16.9140    9.3890   -0.4460 H         1 PYP1        0.0000
     79 C214      -15.3150    9.1850    1.0090 C.3       1 PYP1        0.0000
     80 H14R      -15.2740   10.2710    1.2470 H         1 PYP1        0.0000
     81 H14S      -14.2740    8.7910    1.0460 H         1 PYP1        0.0000
     82 C215      -16.1600    8.4700    2.0720 C.3       1 PYP1        0.0000
     83 H15R      -16.2050    7.3850    1.8240 H         1 PYP1        0.0000
     84 H15S      -17.2000    8.8660    2.0280 H         1 PYP1        0.0000
     85 C216      -15.6170    8.6380    3.4940 C.3       1 PYP1        0.0000
     86 H16R      -15.5840    9.7140    3.7730 H         1 PYP1        0.0000
     87 H16S      -14.5880    8.2250    3.5680 H         1 PYP1        0.0000
     88 H16T      -16.2630    8.1060    4.2240 H         1 PYP1        0.0000
     89 C33        -1.4230    6.3220   -8.5850 C.3       1 PYP1        0.0000
     90 H3X        -2.0570    5.7040   -9.2610 H         1 PYP1        0.0000
     91 H3Y        -0.3890    5.9090   -8.6270 H         1 PYP1        0.0000
     92 C34        -1.4060    7.7670   -9.0970 C.3       1 PYP1        0.0000
     93 H4X        -0.7740    8.3840   -8.4180 H         1 PYP1        0.0000
     94 H4Y        -2.4400    8.1770   -9.0600 H         1 PYP1        0.0000
     95 C35        -0.8700    7.9020  -10.5280 C.3       1 PYP1        0.0000
     96 H5X        -1.4970    7.2930  -11.2170 H         1 PYP1        0.0000
     97 H5Y         0.1680    7.5030  -10.5720 H         1 PYP1        0.0000
     98 C36        -0.8720    9.3630  -10.9990 C.3       1 PYP1        0.0000
     99 H6X        -0.2570    9.9690  -10.2950 H         1 PYP1        0.0000
    100 H6Y        -1.9140    9.7540  -10.9580 H         1 PYP1        0.0000
    101 C37        -0.3250    9.5460  -12.4200 C.3       1 PYP1        0.0000
    102 H7X        -0.9360    8.9430  -13.1290 H         1 PYP1        0.0000
    103 H7Y         0.7200    9.1640  -12.4620 H         1 PYP1        0.0000
    104 C38        -0.3430   11.0160  -12.8600 C.3       1 PYP1        0.0000
    105 H8X         0.2580   11.6170  -12.1420 H         1 PYP1        0.0000
    106 H8Y        -1.3890   11.3930  -12.8230 H         1 PYP1        0.0000
    107 C39         0.2150   11.2230  -14.2750 C.3       1 PYP1        0.0000
    108 H9X        -0.3830   10.6210  -14.9950 H         1 PYP1        0.0000
    109 H9Y         1.2640   10.8530  -14.3110 H         1 PYP1        0.0000
    110 C310        0.1870   12.6960  -14.7060 C.3       1 PYP1        0.0000
    111 H10X        0.7770   13.3000  -13.9810 H         1 PYP1        0.0000
    112 H10Y       -0.8640   13.0640  -14.6760 H         1 PYP1        0.0000
    113 C311        0.7530   12.9110  -16.1160 C.3       1 PYP1        0.0000
    114 H11X        0.1650   12.3060  -16.8420 H         1 PYP1        0.0000
    115 H11Y        1.8050   12.5470  -16.1450 H         1 PYP1        0.0000
    116 C312        0.7200   14.3840  -16.5470 C.3       1 PYP1        0.0000
    117 H12X        1.3040   14.9900  -15.8180 H         1 PYP1        0.0000
    118 H12Y       -0.3320   14.7470  -16.5220 H         1 PYP1        0.0000
    119 C313        1.2930   14.6030  -17.9540 C.3       1 PYP1        0.0000
    120 H13X        0.7110   13.9960  -18.6830 H         1 PYP1        0.0000
    121 H13Y        2.3460   14.2420  -17.9780 H         1 PYP1        0.0000
    122 C314        1.2570   16.0760  -18.3840 C.3       1 PYP1        0.0000
    123 H14X        1.8380   16.6830  -17.6530 H         1 PYP1        0.0000
    124 H14Y        0.2040   16.4360  -18.3610 H         1 PYP1        0.0000
    125 C315        1.8330   16.2990  -19.7880 C.3       1 PYP1        0.0000
    126 H15X        1.2520   15.6850  -20.5150 H         1 PYP1        0.0000
    127 H15Y        2.8840   15.9320  -19.8070 H         1 PYP1        0.0000
    128 C316        1.8030   17.7640  -20.2310 C.3       1 PYP1        0.0000
    129 H16X        2.3960   18.3930  -19.5330 H         1 PYP1        0.0000
    130 H16Y        0.7590   18.1450  -20.2430 H         1 PYP1        0.0000
    131 H16Z        2.2290   17.8730  -21.2510 H         1 PYP1        0.0000
@<TRIPOS>BOND
     1  131  128 1 
     2  126  125 1 
     3  130  128 1 
     4  128  125 1 
     5  128  129 1 
     6  127  125 1 
     7  125  122 1 
     8  120  119 1 
     9  122  124 1 
    10  122  119 1 
    11  122  123 1 
    12  121  119 1 
    13  119  116 1 
    14  114  113 1 
    15  116  118 1 
    16  116  113 1 
    17  116  117 1 
    18  115  113 1 
    19  113  110 1 
    20  108  107 1 
    21  110  112 1 
    22  110  107 1 
    23  110  111 1 
    24  109  107 1 
    25  107  104 1 
    26  102  101 1 
    27  104  106 1 
    28  104  101 1 
    29  104  105 1 
    30  103  101 1 
    31  101   98 1 
    32   96   95 1 
    33   98  100 1 
    34   98   95 1 
    35   98   99 1 
    36   97   95 1 
    37   95   92 1 
    38   90   89 1 
    39   92   94 1 
    40   92   89 1 
    41   92   93 1 
    42   91   89 1 
    43   89   45 1 
    44   44   43 2 
    45   45   47 1 
    46   45   43 1 
    47   45   46 1 
    48   43   42 1 
    49   40   39 1 
    50   65   63 1 
    51   42   39 1 
    52   67   66 1 
    53   61   60 1 
    54   59   57 1 
    55   39   41 1 
    56   39   31 1 
    57   66   63 1 
    58   66   68 2 
    59   63   60 1 
    60   63   64 1 
    61   55   54 1 
    62   53   51 1 
    63   69   68 1 
    64   60   57 1 
    65   60   62 1 
    66   68   70 1 
    67   57   54 1 
    68   57   58 1 
    69   49   48 1 
    70   38   36 1 
    71   33   31 1 
    72   33   34 1 
    73   54   51 1 
    74   54   56 1 
    75   31   32 1 
    76   31   28 1 
    77   51   48 1 
    78   51   52 1 
    79   71   70 1 
    80   30   28 1 
    81   48   36 1 
    82   48   50 1 
    83   25   23 2 
    84   72   70 1 
    85   70   73 1 
    86   36   34 1 
    87   36   37 1 
    88   27   28 1 
    89   27   23 1 
    90   28   29 1 
    91   34   35 2 
    92   23   24 1 
    93   23   26 1 
    94   73   75 1 
    95   73   74 1 
    96   73   76 1 
    97   26   21 1 
    98    2    1 1 
    99   77   76 1 
   100    4    3 1 
   101   78   76 1 
   102   76   79 1 
   103   22   21 1 
   104   21    1 1 
   105   21   17 1 
   106    1    3 1 
   107    1    5 1 
   108   20   19 1 
   109    8    7 1 
   110   79   81 1 
   111   79   80 1 
   112   79   82 1 
   113    6    5 1 
   114    5    7 1 
   115    5    9 1 
   116   17   19 1 
   117   17   18 1 
   118   17   13 1 
   119   83   82 1 
   120   84   82 1 
   121   82   85 1 
   122   14   13 1 
   123   13    9 1 
   124   13   15 1 
   125    9   10 1 
   126    9   11 1 
   127   85   87 1 
   128   85   86 1 
   129   85   88 1 
   130   12   11 1 
   131   16   15 1 
