@<TRIPOS>MOLECULE
C:\Users\Praveer\PycharmProjects\pdb_to_mol2_converter\data\pdb\pyr1.pdb
   11    11     0     0     0
SMALL
GASTEIGER

@<TRIPOS>ATOM
      1 N1          0.0120    0.0430   -0.0000 N.ar      1 PYR1        0.0000
      2 C2          1.3420   -0.0180   -0.0000 C.ar      1 PYR1        0.0000
      3 C3          2.1400    1.1380    0.0000 C.ar      1 PYR1        0.0000
      4 C4          1.5010    2.3880   -0.0000 C.ar      1 PYR1        0.0000
      5 C5          0.0970    2.4350   -0.0000 C.ar      1 PYR1        0.0000
      6 C6         -0.6100    1.2210    0.0000 C.ar      1 PYR1        0.0000
      7 H2          1.8000   -1.0000   -0.0000 H         1 PYR1        0.0000
      8 H3          3.2150    1.0610    0.0000 H         1 PYR1        0.0000
      9 H4          2.0800    3.3000    0.0000 H         1 PYR1        0.0000
     10 H5         -0.4290    3.3750   -0.0000 H         1 PYR1        0.0000
     11 H6         -1.6930    1.2190    0.0000 H         1 PYR1        0.0000
@<TRIPOS>BOND
     1    1    2 ar
     2    1    6 ar
     3    2    3 ar
     4    2    7 1 
     5    3    4 ar
     6    3    8 1 
     7    4    5 ar
     8    4    9 1 
     9    5    6 ar
    10    5   10 1 
    11    6   11 1 
