@<TRIPOS>MOLECULE
C:\Users\Praveer\PycharmProjects\pdb_to_mol2_converter\data\pdb\pyrd.pdb
   10    10     0     0     0
SMALL
GASTEIGER

@<TRIPOS>ATOM
      1 N1         -0.0220    0.0170    0.0000 N.ar      1 PYR1        0.0000
      2 N2          1.3300   -0.0020   -0.0000 N.ar      1 PYR1        0.0000
      3 C3          2.0440    1.1250   -0.0000 C.ar      1 PYR1        0.0000
      4 H3          3.1210    1.0450   -0.0000 H         1 PYR1        0.0000
      5 C4          1.3950    2.3800   -0.0000 C.ar      1 PYR1        0.0000
      6 H4          1.9740    3.2880   -0.0000 H         1 PYR1        0.0000
      7 C5         -0.0200    2.4000   -0.0000 C.ar      1 PYR1        0.0000
      8 H5         -0.5730    3.3240   -0.0000 H         1 PYR1        0.0000
      9 C6         -0.7040    1.1640    0.0000 C.ar      1 PYR1        0.0000
     10 H6         -1.7830    1.1140    0.0000 H         1 PYR1        0.0000
@<TRIPOS>BOND
     1    1    2 ar
     2    1    9 ar
     3    2    3 ar
     4    3    4 1 
     5    3    5 ar
     6    5    6 1 
     7    5    7 ar
     8    7    8 1 
     9    7    9 ar
    10    9   10 1 
