@<TRIPOS>MOLECULE
C:\Users\Praveer\PycharmProjects\pdb_to_mol2_converter\data\pdb\pyrf.pdb
   21    22     0     0     0
SMALL
GASTEIGER

@<TRIPOS>ATOM
      1 N1          0.0730   -0.1190    0.0000 N.2       1 PYR1        0.0000
      2 C2          1.4520   -0.1670    0.0000 C.2       1 PYR1        0.0000
      3 N3          2.1910    0.9840   -0.0000 N.pl3     1 PYR1        0.0000
      4 C4          1.5660    2.2180   -0.0000 C.2       1 PYR1        0.0000
      5 C5          0.1480    2.3300   -0.0000 C.2       1 PYR1        0.0000
      6 C6         -0.5780    1.1120    0.0000 C.3       1 PYR1        0.0000
      7 C7         -0.5760    3.6740   -0.0000 C.ar      1 PYR1        0.0000
      8 C8          0.0990    4.9290   -0.0000 C.ar      1 PYR1        0.0000
      9 C9         -0.5800    6.1410   -0.0000 C.ar      1 PYR1        0.0000
     10 C10        -1.9770    6.1460   -0.0000 C.ar      1 PYR1        0.0000
     11 C11        -2.6800    4.9420   -0.0000 C.ar      1 PYR1        0.0000
     12 C12        -1.9950    3.7200   -0.0000 C.ar      1 PYR1        0.0000
     13 H2          1.9560   -1.1450    0.0000 H         1 PYR1        0.0000
     14 H3          3.2030    0.9190   -0.0000 H         1 PYR1        0.0000
     15 H4          2.1960    3.1120   -0.0000 H         1 PYR1        0.0000
     16 H6         -1.6710    1.1120    0.0000 H         1 PYR1        0.0000
     17 F8          1.4550    5.0160   -0.0000 F         1 PYR1        0.0000
     18 H9         -0.0350    7.0750   -0.0000 H         1 PYR1        0.0000
     19 H10        -2.5150    7.0850   -0.0000 H         1 PYR1        0.0000
     20 H11        -3.7620    4.9560   -0.0000 H         1 PYR1        0.0000
     21 H12        -2.5990    2.8230   -0.0000 H         1 PYR1        0.0000
@<TRIPOS>BOND
     1    1    2 2 
     2    1    6 1 
     3    2    3 1 
     4    2   13 1 
     5    3    4 1 
     6    3   14 1 
     7    4    5 2 
     8    4   15 1 
     9    5    6 1 
    10    5    7 1 
    11    6   16 1 
    12    7    8 ar
    13    7   12 ar
    14    8    9 ar
    15    8   17 1 
    16    9   10 ar
    17    9   18 1 
    18   10   11 ar
    19   10   19 1 
    20   11   12 ar
    21   11   20 1 
    22   12   21 1 
