@<TRIPOS>MOLECULE
C:\Users\Praveer\PycharmProjects\pdb_to_mol2_converter\data\pdb\pyrh.pdb
   11    11     0     0     0
SMALL
GASTEIGER

@<TRIPOS>ATOM
      1 N1         -0.0110    0.0850    0.0000 N.2       1 PYR1        0.0000
      2 C2          1.3700   -0.0120   -0.0000 C.2       1 PYR1        0.0000
      3 N3          2.1580    1.1120   -0.0000 N.pl3     1 PYR1        0.0000
      4 C4          1.5480    2.3510   -0.0000 C.3       1 PYR1        0.0000
      5 C5          0.1810    2.4840   -0.0000 C.2       1 PYR1        0.0000
      6 C6         -0.5940    1.3510    0.0000 C.2       1 PYR1        0.0000
      7 H3          3.1670    1.0170   -0.0000 H         1 PYR1        0.0000
      8 H2          1.8370   -1.0080   -0.0000 H         1 PYR1        0.0000
      9 H4          2.1840    3.2440   -0.0000 H         1 PYR1        0.0000
     10 H6         -1.6880    1.4210    0.0000 H         1 PYR1        0.0000
     11 H5         -0.2820    3.4710   -0.0000 H         1 PYR1        0.0000
@<TRIPOS>BOND
     1    1    2 2 
     2    1    6 1 
     3    2    3 1 
     4    2    8 1 
     5    3    4 1 
     6    3    7 1 
     7    4    5 1 
     8    4    9 1 
     9    5    6 2 
    10    5   11 1 
    11    6   10 1 
