@<TRIPOS>MOLECULE
C:\Users\Praveer\PycharmProjects\pdb_to_mol2_converter\data\pdb\pyrl.pdb
   10    10     0     0     0
SMALL
GASTEIGER

@<TRIPOS>ATOM
      1 C1          1.3910   -0.0150    0.0000 C.ar      1 PYR1        0.0000
      2 H1          2.0220   -0.8960    0.0000 H         1 PYR1        0.0000
      3 C2          1.7410    1.2970   -0.0000 C.ar      1 PYR1        0.0000
      4 H2          2.7530    1.6760    0.0000 H         1 PYR1        0.0000
      5 C3          0.6100    2.0570   -0.0000 C.ar      1 PYR1        0.0000
      6 H3          0.5790    3.1380   -0.0000 H         1 PYR1        0.0000
      7 C4         -0.4730    1.2380   -0.0000 C.ar      1 PYR1        0.0000
      8 H4         -1.5260    1.4890    0.0000 H         1 PYR1        0.0000
      9 N5          0.0150   -0.0490    0.0000 N.ar      1 PYR1        0.0000
     10 H5         -0.5490   -0.8880    0.0000 H         1 PYR1        0.0000
@<TRIPOS>BOND
     1    1    2 1 
     2    1    3 ar
     3    1    9 ar
     4    3    4 1 
     5    3    5 ar
     6    5    6 1 
     7    5    7 ar
     8    7    8 1 
     9    7    9 ar
    10    9   10 1 
