@<TRIPOS>MOLECULE
C:\Users\Praveer\PycharmProjects\pdb_to_mol2_converter\data\pdb\pyrz.pdb
    9     9     0     0     0
SMALL
GASTEIGER

@<TRIPOS>ATOM
      1 C1         -0.0080   -0.0120    0.0000 C.ar      1 PYR1        0.0000
      2 H1         -0.7100   -0.8350    0.0000 H         1 PYR1        0.0000
      3 C2          1.3500    0.0000   -0.0000 C.ar      1 PYR1        0.0000
      4 H2          2.0000   -0.8600   -0.0000 H         1 PYR1        0.0000
      5 C3          1.7400    1.3510   -0.0000 C.ar      1 PYR1        0.0000
      6 H3          2.7580    1.7240   -0.0000 H         1 PYR1        0.0000
      7 N4          0.6930    2.1550   -0.0000 N.ar      1 PYR1        0.0000
      8 N5         -0.3620    1.3120    0.0000 N.ar      1 PYR1        0.0000
      9 H5         -1.3020    1.6890    0.0000 H         1 PYR1        0.0000
@<TRIPOS>BOND
     1    1    2 1 
     2    1    3 ar
     3    1    8 ar
     4    3    4 1 
     5    3    5 ar
     6    5    6 1 
     7    5    7 ar
     8    7    8 ar
     9    8    9 1 
