@<TRIPOS>MOLECULE
C:\Users\Praveer\PycharmProjects\pdb_to_mol2_converter\data\pdb\pyzn.pdb
   10    10     0     0     0
SMALL
GASTEIGER

@<TRIPOS>ATOM
      1 N1          0.0130    0.0200   -0.0000 N.ar      1 PYZ1        0.0000
      2 C2          1.3500   -0.0540    0.0000 C.ar      1 PYZ1        0.0000
      3 H2          1.8110   -1.0300    0.0000 H         1 PYZ1        0.0000
      4 C3          2.1400    1.1190   -0.0000 C.ar      1 PYZ1        0.0000
      5 H3          3.2190    1.0570   -0.0000 H         1 PYZ1        0.0000
      6 N4          1.5720    2.3300    0.0000 N.ar      1 PYZ1        0.0000
      7 C5          0.2350    2.4040    0.0000 C.ar      1 PYZ1        0.0000
      8 H5         -0.2260    3.3800    0.0000 H         1 PYZ1        0.0000
      9 C6         -0.5550    1.2310   -0.0000 C.ar      1 PYZ1        0.0000
     10 H6         -1.6340    1.2930   -0.0000 H         1 PYZ1        0.0000
@<TRIPOS>BOND
     1    1    2 ar
     2    1    9 ar
     3    2    3 1 
     4    2    4 ar
     5    4    5 1 
     6    4    6 ar
     7    6    7 ar
     8    7    8 1 
     9    7    9 ar
    10    9   10 1 
