@<TRIPOS>MOLECULE
C:\Users\Praveer\PycharmProjects\pdb_to_mol2_converter\data\pdb\qinl.pdb
   17    18     0     0     0
SMALL
GASTEIGER

@<TRIPOS>ATOM
      1 N1          2.0710    1.1390    0.0000 N.ar      1 QIN1        0.0000
      2 C2          1.4360    2.3080    0.0000 C.ar      1 QIN1        0.0000
      3 H2          2.0400    3.2080    0.0000 H         1 QIN1        0.0000
      4 C3          0.0350    2.3970   -0.0000 C.ar      1 QIN1        0.0000
      5 H3         -0.4510    3.3600   -0.0000 H         1 QIN1        0.0000
      6 C4         -0.7140    1.2100   -0.0000 C.ar      1 QIN1        0.0000
      7 H4         -1.7930    1.2520   -0.0000 H         1 QIN1        0.0000
      8 C5         -0.0410   -0.0230   -0.0000 C.ar      1 QIN1        0.0000
      9 C6         -0.7310   -1.2420   -0.0000 C.ar      1 QIN1        0.0000
     10 H6         -1.8110   -1.2630   -0.0000 H         1 QIN1        0.0000
     11 C7         -0.0160   -2.4480   -0.0000 C.ar      1 QIN1        0.0000
     12 H7         -0.5480   -3.3890   -0.0000 H         1 QIN1        0.0000
     13 C8          1.3850   -2.4410    0.0000 C.ar      1 QIN1        0.0000
     14 H8          1.9310   -3.3730    0.0000 H         1 QIN1        0.0000
     15 C9          2.0800   -1.2230    0.0000 C.ar      1 QIN1        0.0000
     16 H9          3.1600   -1.2130    0.0000 H         1 QIN1        0.0000
     17 C10         1.3890   -0.0060    0.0000 C.ar      1 QIN1        0.0000
@<TRIPOS>BOND
     1    1    2 ar
     2    1   17 ar
     3    2    3 1 
     4    2    4 ar
     5    4    5 1 
     6    4    6 ar
     7    6    7 1 
     8    6    8 ar
     9    8    9 ar
    10    8   17 ar
    11    9   10 1 
    12    9   11 ar
    13   11   12 1 
    14   11   13 ar
    15   13   14 1 
    16   13   15 ar
    17   15   16 1 
    18   15   17 ar
