@<TRIPOS>MOLECULE
C:\Users\Praveer\PycharmProjects\pdb_to_mol2_converter\data\pdb\qinu.pdb
   22    23     0     0     0
SMALL
GASTEIGER

@<TRIPOS>ATOM
      1 N1          1.5600   -0.0180   -0.0250 N.4       1 QIN1        0.0000
      2 H1          1.8740   -0.5200   -0.8790 H         1 QIN1        0.0000
      3 C2          2.0900    1.3930   -0.0530 C.3       1 QIN1        0.0000
      4 H21         1.6970    1.8270   -0.9860 H         1 QIN1        0.0000
      5 H22         3.1840    1.2860   -0.1220 H         1 QIN1        0.0000
      6 C6          0.0520    0.0080    0.0120 C.3       1 QIN1        0.0000
      7 H61        -0.2510   -1.0510   -0.0110 H         1 QIN1        0.0000
      8 H62        -0.2470    0.5040   -0.9250 H         1 QIN1        0.0000
      9 C7          2.0850   -0.7330    1.1940 C.3       1 QIN1        0.0000
     10 H71         3.1790   -0.7430    1.0700 H         1 QIN1        0.0000
     11 H72         1.6890   -1.7580    1.1170 H         1 QIN1        0.0000
     12 C3          1.6370    2.1580    1.2060 C.3       1 QIN1        0.0000
     13 H31         1.0430    3.0540    0.9190 H         1 QIN1        0.0000
     14 H32         2.5220    2.5120    1.7800 H         1 QIN1        0.0000
     15 C4          0.7810    1.2270    2.0930 C.3       1 QIN1        0.0000
     16 H4          0.4440    1.7650    3.0070 H         1 QIN1        0.0000
     17 C5         -0.4370    0.7500    1.2710 C.3       1 QIN1        0.0000
     18 H51        -1.0680    0.0770    1.8930 H         1 QIN1        0.0000
     19 H52        -1.0610    1.6250    0.9840 H         1 QIN1        0.0000
     20 C8          1.6300   -0.0050    2.4750 C.3       1 QIN1        0.0000
     21 H81         2.5130    0.3180    3.0680 H         1 QIN1        0.0000
     22 H82         1.0290   -0.6900    3.1130 H         1 QIN1        0.0000
@<TRIPOS>BOND
     1    4    3 1 
     2    8    6 1 
     3    2    1 1 
     4    5    3 1 
     5    3    1 1 
     6    3   12 1 
     7    1    6 1 
     8    1    9 1 
     9    7    6 1 
    10    6   17 1 
    11   13   12 1 
    12   19   17 1 
    13   10    9 1 
    14   11    9 1 
    15    9   20 1 
    16   12   14 1 
    17   12   15 1 
    18   17   18 1 
    19   17   15 1 
    20   15   20 1 
    21   15   16 1 
    22   20   21 1 
    23   20   22 1 
