@<TRIPOS>MOLECULE
C:\Users\Praveer\PycharmProjects\pdb_to_mol2_converter\data\pdb\qinx.pdb
   16    17     0     0     0
SMALL
GASTEIGER

@<TRIPOS>ATOM
      1 N1          2.0840    1.1340    0.0000 N.ar      1 QIN1        0.0000
      2 C2          1.3940    2.2780    0.0000 C.ar      1 QIN1        0.0000
      3 H2          1.9440    3.2090    0.0000 H         1 QIN1        0.0000
      4 C3         -0.0190    2.2780   -0.0000 C.ar      1 QIN1        0.0000
      5 H3         -0.5690    3.2090   -0.0000 H         1 QIN1        0.0000
      6 N4         -0.7090    1.1340   -0.0000 N.ar      1 QIN1        0.0000
      7 C5         -0.0340   -0.0220   -0.0000 C.ar      1 QIN1        0.0000
      8 C6         -0.7180   -1.2440   -0.0000 C.ar      1 QIN1        0.0000
      9 H6         -1.7980   -1.2430    0.0000 H         1 QIN1        0.0000
     10 C7         -0.0130   -2.4550    0.0000 C.ar      1 QIN1        0.0000
     11 H7         -0.5520   -3.3920    0.0000 H         1 QIN1        0.0000
     12 C8          1.3880   -2.4550   -0.0000 C.ar      1 QIN1        0.0000
     13 H8          1.9270   -3.3920   -0.0000 H         1 QIN1        0.0000
     14 C9          2.0930   -1.2440   -0.0000 C.ar      1 QIN1        0.0000
     15 H9          3.1730   -1.2430   -0.0000 H         1 QIN1        0.0000
     16 C10         1.4090   -0.0220   -0.0000 C.ar      1 QIN1        0.0000
@<TRIPOS>BOND
     1    1    2 ar
     2    1   16 ar
     3    2    3 1 
     4    2    4 ar
     5    4    5 1 
     6    4    6 ar
     7    6    7 ar
     8    7    8 ar
     9    7   16 ar
    10    8    9 1 
    11    8   10 ar
    12   10   11 1 
    13   10   12 ar
    14   12   13 1 
    15   12   14 ar
    16   14   15 1 
    17   14   16 ar
