@<TRIPOS>MOLECULE
C:\Users\Praveer\PycharmProjects\pdb_to_mol2_converter\data\pdb\qinz.pdb
   16    17     0     0     0
SMALL
GASTEIGER

@<TRIPOS>ATOM
      1 N1          2.0800    1.1430    0.0000 N.ar      1 QIN1        0.0000
      2 C2          1.3440    2.2940    0.0000 C.ar      1 QIN1        0.0000
      3 H2          1.8980    3.2370    0.0000 H         1 QIN1        0.0000
      4 N3         -0.0220    2.3790   -0.0000 N.ar      1 QIN1        0.0000
      5 C4         -0.6800    1.2190   -0.0000 C.ar      1 QIN1        0.0000
      6 H4         -1.7630    1.2700   -0.0000 H         1 QIN1        0.0000
      7 C5         -0.0460   -0.0290   -0.0000 C.ar      1 QIN1        0.0000
      8 C6         -0.7380   -1.2450   -0.0000 C.ar      1 QIN1        0.0000
      9 H6         -1.8200   -1.2710   -0.0000 H         1 QIN1        0.0000
     10 C7         -0.0170   -2.4470   -0.0000 C.ar      1 QIN1        0.0000
     11 H7         -0.5440   -3.3920   -0.0000 H         1 QIN1        0.0000
     12 C8          1.3840   -2.4330    0.0000 C.ar      1 QIN1        0.0000
     13 H8          1.9340   -3.3640    0.0000 H         1 QIN1        0.0000
     14 C9          2.0750   -1.2110    0.0000 C.ar      1 QIN1        0.0000
     15 H9          3.1550   -1.2080    0.0000 H         1 QIN1        0.0000
     16 C10         1.3810    0.0080    0.0000 C.ar      1 QIN1        0.0000
@<TRIPOS>BOND
     1    1    2 ar
     2    1   16 ar
     3    2    3 1 
     4    2    4 ar
     5    4    5 ar
     6    5    6 1 
     7    5    7 ar
     8    7    8 ar
     9    7   16 ar
    10    8    9 1 
    11    8   10 ar
    12   10   11 1 
    13   10   12 ar
    14   12   13 1 
    15   12   14 ar
    16   14   15 1 
    17   14   16 ar
