@<TRIPOS>MOLECULE
C:\Users\Praveer\PycharmProjects\pdb_to_mol2_converter\data\pdb\qmpe.pdb
  119   119     0     0     0
SMALL
GASTEIGER

@<TRIPOS>ATOM
      1 N           1.0800    0.0870    0.1070 N.4       1 QMP1        0.0000
      2 HN1         1.5180   -0.4880   -0.6360 H         1 QMP1        0.0000
      3 HN2         0.0570   -0.0820    0.1670 H         1 QMP1        0.0000
      4 HN3         1.5010   -0.1290    1.0450 H         1 QMP1        0.0000
      5 C12         1.3790    1.5540   -0.0180 C.3       1 QMP1        0.0000
      6 H12A        0.7090    2.0070   -0.7760 H         1 QMP1        0.0000
      7 H12B        2.4430    1.6530   -0.3290 H         1 QMP1        0.0000
      8 C11         1.1990    2.1560    1.3760 C.3       1 QMP1        0.0000
      9 H11A        0.1040    2.2360    1.6030 H         1 QMP1        0.0000
     10 H11B        1.6320    3.1850    1.4050 H         1 QMP1        0.0000
     11 P           1.5550    1.5140    3.8630 P.3       1 QMP1        0.0000
     12 O13         1.5600    2.9620    4.1480 O.2       1 QMP1        0.0000
     13 O14         2.4170    0.5980    4.6310 O.3       1 QMP1        0.0000
     14 O11         0.0760    0.9520    3.8660 O.3       1 QMP1        0.0000
     15 O12         1.8710    1.3090    2.3140 O.3       1 QMP1        0.0000
     16 C1         -0.1690   -0.4360    3.6030 C.3       1 QMP1        0.0000
     17 HA          0.7470   -1.0140    3.3300 H         1 QMP1        0.0000
     18 HB         -0.8530   -0.5100    2.7320 H         1 QMP1        0.0000
     19 C2         -0.8390   -1.1620    4.8150 C.3       1 QMP1        0.0000
     20 HS         -1.2610   -2.1260    4.4410 H         1 QMP1        0.0000
     21 O21        -1.8740   -0.3790    5.4260 O.3       1 QMP1        0.0000
     22 C21        -2.8990   -0.0580    4.6620 C.2       1 QMP1        0.0000
     23 O22        -3.1010   -0.4450    3.5230 O.2       1 QMP1        0.0000
     24 C22        -3.8490    0.8380    5.4600 C.3       1 QMP1        0.0000
     25 H2R        -3.9160    1.8100    4.9310 H         1 QMP1        0.0000
     26 H2S        -3.4200    1.0250    6.4660 H         1 QMP1        0.0000
     27 C3          0.2020   -1.5140    5.9140 C.3       1 QMP1        0.0000
     28 HX          0.3980   -0.6070    6.5350 H         1 QMP1        0.0000
     29 HY          1.1620   -1.7580    5.4100 H         1 QMP1        0.0000
     30 O31        -0.2020   -2.6730    6.6790 O.3       1 QMP1        0.0000
     31 C31        -0.7130   -2.4460    7.8880 C.2       1 QMP1        0.0000
     32 O32        -0.9030   -1.3630    8.3980 O.2       1 QMP1        0.0000
     33 C32        -0.9990   -3.8060    8.5440 C.3       1 QMP1        0.0000
     34 H2X        -0.0630   -4.3990    8.4720 H         1 QMP1        0.0000
     35 H2Y        -1.7790   -4.3200    7.9490 H         1 QMP1        0.0000
     36 C23        -5.2590    0.2130    5.5870 C.3       1 QMP1        0.0000
     37 H3R        -5.7280    0.1530    4.5790 H         1 QMP1        0.0000
     38 H3S        -5.8920    0.8920    6.2000 H         1 QMP1        0.0000
     39 C24        -5.2700   -1.1900    6.2200 C.3       1 QMP1        0.0000
     40 H4R        -4.6760   -1.8720    5.5700 H         1 QMP1        0.0000
     41 H4S        -6.3110   -1.5840    6.2200 H         1 QMP1        0.0000
     42 C25        -4.6830   -1.2620    7.6420 C.3       1 QMP1        0.0000
     43 H5R        -3.6570   -0.8330    7.6440 H         1 QMP1        0.0000
     44 H5S        -4.5860   -2.3370    7.9170 H         1 QMP1        0.0000
     45 C26        -5.5150   -0.5690    8.7350 C.3       1 QMP1        0.0000
     46 H6R        -5.6930    0.4950    8.4730 H         1 QMP1        0.0000
     47 H6S        -4.9210   -0.5810    9.6770 H         1 QMP1        0.0000
     48 C27        -6.8530   -1.2760    8.9860 C.3       1 QMP1        0.0000
     49 H7R        -6.6620   -2.3640    9.1240 H         1 QMP1        0.0000
     50 H7S        -7.4940   -1.1590    8.0850 H         1 QMP1        0.0000
     51 C28        -7.6300   -0.7390   10.1990 C.3       1 QMP1        0.0000
     52 H8R        -7.8740    0.3270   10.0110 H         1 QMP1        0.0000
     53 H8S        -7.0020   -0.7930   11.1160 H         1 QMP1        0.0000
     54 C29        -8.8930   -1.5760   10.4010 C.3       1 QMP1        0.0000
     55 H9R        -8.7800   -2.6730   10.4380 H         1 QMP1        0.0000
     56 C217      -10.0900   -1.1050    9.5730 C.3       1 QMP1        0.0000
     57 H17R      -10.6740   -1.9230    9.1770 H         1 QMP1        0.0000
     58 H17S       -9.9510   -0.1480    9.0940 H         1 QMP1        0.0000
     59 C210      -10.1100   -1.0170   11.0940 C.3       1 QMP1        0.0000
     60 H10R      -10.7640   -1.7630   11.5750 H         1 QMP1        0.0000
     61 C211      -10.0630    0.3860   11.7030 C.3       1 QMP1        0.0000
     62 H11R      -11.1070    0.7440   11.8530 H         1 QMP1        0.0000
     63 H11S       -9.5630    1.1020   11.0150 H         1 QMP1        0.0000
     64 C212       -9.3270    0.3990   13.0560 C.3       1 QMP1        0.0000
     65 H12R       -9.2630    1.4570   13.3990 H         1 QMP1        0.0000
     66 H12S       -8.2890    0.0170   12.9380 H         1 QMP1        0.0000
     67 C213      -10.0560   -0.4090   14.1410 C.3       1 QMP1        0.0000
     68 H13R       -9.9890   -1.4960   13.9200 H         1 QMP1        0.0000
     69 H13S      -11.1340   -0.1310   14.1250 H         1 QMP1        0.0000
     70 C214       -9.5200   -0.1410   15.5530 C.3       1 QMP1        0.0000
     71 H14R       -9.6060    0.9500   15.7630 H         1 QMP1        0.0000
     72 H14S       -8.4420   -0.4120   15.6100 H         1 QMP1        0.0000
     73 C215      -10.2910   -0.9100   16.6330 C.3       1 QMP1        0.0000
     74 H15R      -10.0740   -1.9990   16.5300 H         1 QMP1        0.0000
     75 H15S      -11.3850   -0.7680   16.4700 H         1 QMP1        0.0000
     76 C216       -9.9370   -0.4500   18.0470 C.3       1 QMP1        0.0000
     77 H16R      -10.2280    0.6130   18.1930 H         1 QMP1        0.0000
     78 H16S       -8.8430   -0.5350   18.2180 H         1 QMP1        0.0000
     79 H16T      -10.4640   -1.0650   18.8070 H         1 QMP1        0.0000
     80 C33        -1.4150   -3.7220   10.0360 C.3       1 QMP1        0.0000
     81 H3X        -0.7760   -2.9900   10.5800 H         1 QMP1        0.0000
     82 H3Y        -1.2410   -4.7230   10.4970 H         1 QMP1        0.0000
     83 C34        -2.8960   -3.3710   10.2500 C.3       1 QMP1        0.0000
     84 H4X        -3.5330   -4.1000    9.7010 H         1 QMP1        0.0000
     85 H4Y        -3.0960   -2.3600    9.8300 H         1 QMP1        0.0000
     86 C35        -3.3030   -3.3760   11.7330 C.3       1 QMP1        0.0000
     87 H5X        -2.7110   -2.6000   12.2670 H         1 QMP1        0.0000
     88 H5Y        -3.0460   -4.3610   12.1800 H         1 QMP1        0.0000
     89 C36        -4.8010   -3.0950   11.9330 C.3       1 QMP1        0.0000
     90 H6X        -5.3900   -3.9380   11.5080 H         1 QMP1        0.0000
     91 H6Y        -5.0590   -2.1810   11.3540 H         1 QMP1        0.0000
     92 C37        -5.2130   -2.8700   13.4000 C.3       1 QMP1        0.0000
     93 H7X        -6.2980   -2.6180   13.4260 H         1 QMP1        0.0000
     94 H7Y        -4.6540   -1.9960   13.8020 H         1 QMP1        0.0000
     95 C38        -4.9610   -4.0890   14.3010 C.3       1 QMP1        0.0000
     96 H8X        -3.8650   -4.2730   14.3560 H         1 QMP1        0.0000
     97 H8Y        -5.4280   -4.9840   13.8290 H         1 QMP1        0.0000
     98 C39        -5.5130   -3.9350   15.7300 C.3       1 QMP1        0.0000
     99 H9X        -5.3670   -4.9020   16.2650 H         1 QMP1        0.0000
    100 H9Y        -6.6060   -3.7330   15.6950 H         1 QMP1        0.0000
    101 C310       -4.8260   -2.8260   16.5430 C.3       1 QMP1        0.0000
    102 H10X       -5.1560   -1.8320   16.1700 H         1 QMP1        0.0000
    103 H10Y       -3.7270   -2.9010   16.3720 H         1 QMP1        0.0000
    104 C311       -5.0840   -2.9320   18.0580 C.3       1 QMP1        0.0000
    105 H11X       -4.4050   -2.2220   18.5850 H         1 QMP1        0.0000
    106 H11Y       -4.8170   -3.9580   18.3950 H         1 QMP1        0.0000
    107 C312       -6.5280   -2.6250   18.4900 C.3       1 QMP1        0.0000
    108 H12X       -7.2370   -3.2760   17.9330 H         1 QMP1        0.0000
    109 H12Y       -6.7650   -1.5680   18.2340 H         1 QMP1        0.0000
    110 C313       -6.7380   -2.8450   19.9980 C.3       1 QMP1        0.0000
    111 H13X       -5.9970   -2.2350   20.5620 H         1 QMP1        0.0000
    112 H13Y       -6.5420   -3.9160   20.2320 H         1 QMP1        0.0000
    113 C314       -8.1500   -2.4790   20.4770 C.3       1 QMP1        0.0000
    114 H14X       -8.8950   -3.0490   19.8770 H         1 QMP1        0.0000
    115 H14Y       -8.3220   -1.3960   20.2830 H         1 QMP1        0.0000
    116 C315       -8.3870   -2.7580   21.9640 C.3       1 QMP1        0.0000
    117 H15X       -7.6790   -2.1730   22.5890 H         1 QMP1        0.0000
    118 H15Y       -8.2430   -3.8380   22.1840 H         1 QMP1        0.0000
    119 H15Z       -9.4240   -2.4780   22.2510 H         1 QMP1        0.0000
@<TRIPOS>BOND
     1    6    5 1 
     2    2    1 1 
     3    7    5 1 
     4    5    1 1 
     5    5    8 1 
     6    1    3 1 
     7    1    4 1 
     8    8   10 1 
     9    8    9 1 
    10    8   15 1 
    11   15   11 1 
    12   18   16 1 
    13   17   16 1 
    14   23   22 2 
    15   16   14 1 
    16   16   19 1 
    17   11   14 1 
    18   11   12 2 
    19   11   13 1 
    20   20   19 1 
    21   37   36 1 
    22   22   21 1 
    23   22   24 1 
    24   19   21 1 
    25   19   27 1 
    26   25   24 1 
    27   29   27 1 
    28   24   36 1 
    29   24   26 1 
    30   40   39 1 
    31   36   38 1 
    32   36   39 1 
    33   27   28 1 
    34   27   30 1 
    35   39   41 1 
    36   39   42 1 
    37   30   31 1 
    38   42   43 1 
    39   42   44 1 
    40   42   45 1 
    41   31   32 2 
    42   31   33 1 
    43   35   33 1 
    44   50   48 1 
    45   34   33 1 
    46   46   45 1 
    47   33   80 1 
    48   45   48 1 
    49   45   47 1 
    50   48   49 1 
    51   48   51 1 
    52   58   56 1 
    53   57   56 1 
    54   56   54 1 
    55   56   59 1 
    56   84   83 1 
    57   85   83 1 
    58   52   51 1 
    59   80   83 1 
    60   80   82 1 
    61   80   81 1 
    62   51   54 1 
    63   51   53 1 
    64   83   86 1 
    65   54   55 1 
    66   54   59 1 
    67   63   61 1 
    68   59   60 1 
    69   59   61 1 
    70   91   89 1 
    71   90   89 1 
    72   61   62 1 
    73   61   64 1 
    74   86   89 1 
    75   86   88 1 
    76   86   87 1 
    77   89   92 1 
    78   66   64 1 
    79   64   65 1 
    80   64   67 1 
    81   92   93 1 
    82   92   94 1 
    83   92   95 1 
    84   97   95 1 
    85   68   67 1 
    86   69   67 1 
    87   67   70 1 
    88   95   96 1 
    89   95   98 1 
    90   70   72 1 
    91   70   71 1 
    92   70   73 1 
    93  100   98 1 
    94   98   99 1 
    95   98  101 1 
    96  102  101 1 
    97  103  101 1 
    98   75   73 1 
    99   74   73 1 
   100  101  104 1 
   101   73   76 1 
   102  108  107 1 
   103   76   77 1 
   104   76   78 1 
   105   76   79 1 
   106  104  106 1 
   107  104  107 1 
   108  104  105 1 
   109  109  107 1 
   110  107  110 1 
   111  114  113 1 
   112  110  112 1 
   113  110  113 1 
   114  110  111 1 
   115  115  113 1 
   116  113  116 1 
   117  116  118 1 
   118  116  119 1 
   119  116  117 1 
