@<TRIPOS>MOLECULE
C:\Users\Praveer\PycharmProjects\pdb_to_mol2_converter\data\pdb\quita.pdb
   36    36     0     0     0
SMALL
GASTEIGER

@<TRIPOS>ATOM
      1 C1          1.0780    0.0700   -0.0400 C.3       1 QUI1        0.0000
      2 H1         -0.0370    0.0790   -0.0360 H         1 QUI1        0.0000
      3 O1          1.5070   -0.6270   -1.1810 O.3       1 QUI1        0.0000
      4 HO1         1.0900   -1.4920   -1.1520 H         1 QUI1        0.0000
      5 C5          2.9400   -0.5270    1.3230 C.3       1 QUI1        0.0000
      6 H5          3.3990   -1.1230    0.4990 H         1 QUI1        0.0000
      7 O5          1.5130   -0.5240    1.1800 O.3       1 QUI1        0.0000
      8 C2          1.5660    1.5110   -0.0780 C.3       1 QUI1        0.0000
      9 H2          1.1310    2.0230    0.8150 H         1 QUI1        0.0000
     10 O2          1.0980    2.2240   -1.2230 O.3       1 QUI1        0.0000
     11 HO2         1.3330    1.7110   -2.0070 H         1 QUI1        0.0000
     12 C3          3.0710    1.6170    0.0300 C.3       1 QUI1        0.0000
     13 H3          3.5140    1.0890   -0.8530 H         1 QUI1        0.0000
     14 N           3.4810    3.0100   -0.0320 N.am      1 QUI1        0.0000
     15 HN          2.7430    3.6720    0.0550 H         1 QUI1        0.0000
     16 C           4.7280    3.4270   -0.2950 C.2       1 QUI1        0.0000
     17 O           5.6360    2.6280   -0.5080 O.2       1 QUI1        0.0000
     18 CT          4.9670    4.9280   -0.3000 C.3       1 QUI1        0.0000
     19 HT1         4.3070    5.4060   -1.0510 H         1 QUI1        0.0000
     20 HT2         6.0240    5.0870   -0.6030 H         1 QUI1        0.0000
     21 CB          4.7150    5.5230    1.0960 C.3       1 QUI1        0.0000
     22 HB          3.6200    5.5460    1.3110 H         1 QUI1        0.0000
     23 OG1         5.1720    6.8580    1.0880 O.3       1 QUI1        0.0000
     24 HG1         6.1020    6.8140    0.8520 H         1 QUI1        0.0000
     25 CG2         5.4290    4.8050    2.2480 C.3       1 QUI1        0.0000
     26 HG21        6.5170    4.7140    2.0450 H         1 QUI1        0.0000
     27 HG22        5.0160    3.7850    2.3990 H         1 QUI1        0.0000
     28 HG23        5.2950    5.3710    3.1950 H         1 QUI1        0.0000
     29 C4          3.5120    0.8870    1.2860 C.3       1 QUI1        0.0000
     30 H4          3.1260    1.4410    2.1730 H         1 QUI1        0.0000
     31 O4          4.9280    0.8310    1.3930 O.3       1 QUI1        0.0000
     32 HO4         5.3240    1.3760    0.6870 H         1 QUI1        0.0000
     33 C6          3.2190   -1.2600    2.6480 C.3       1 QUI1        0.0000
     34 H61         4.3130   -1.3470    2.8190 H         1 QUI1        0.0000
     35 H62         2.7780   -2.2780    2.6240 H         1 QUI1        0.0000
     36 H63         2.7710   -0.7010    3.4970 H         1 QUI1        0.0000
@<TRIPOS>BOND
     1   11   10 1 
     2   10    8 1 
     3    3    4 1 
     4    3    1 1 
     5   19   18 1 
     6   13   12 1 
     7   20   18 1 
     8   17   16 2 
     9   18   16 1 
    10   18   21 1 
    11   16   14 am
    12    8    1 1 
    13    8   12 1 
    14    8    9 1 
    15    1    2 1 
    16    1    7 1 
    17   14   12 1 
    18   14   15 1 
    19   12   29 1 
    20    6    5 1 
    21   32   31 1 
    22   24   23 1 
    23   23   21 1 
    24   21   22 1 
    25   21   25 1 
    26    7    5 1 
    27   29    5 1 
    28   29   31 1 
    29   29   30 1 
    30    5   33 1 
    31   26   25 1 
    32   25   27 1 
    33   25   28 1 
    34   35   33 1 
    35   33   34 1 
    36   33   36 1 
