@<TRIPOS>MOLECULE
C:\Users\Praveer\PycharmProjects\pdb_to_mol2_converter\data\pdb\r3ph.pdb
   19    19     0     0     0
SMALL
GASTEIGER

@<TRIPOS>ATOM
      1 O4'         1.3360   -0.1530   -0.2900 O.3       1 R3P1        0.0000
      2 C1'         1.8160    1.1860   -0.4310 C.3       1 R3P1        0.0000
      3 H11'        1.5660    1.5300   -1.4430 H         1 R3P1        0.0000
      4 H12'        2.9120    1.1680   -0.3380 H         1 R3P1        0.0000
      5 C4'        -0.0220   -0.0700    0.1440 C.3       1 R3P1        0.0000
      6 H41'       -0.2960   -1.0080    0.6450 H         1 R3P1        0.0000
      7 H42'       -0.6500    0.0360   -0.7510 H         1 R3P1        0.0000
      8 C2'         1.1240    2.0260    0.6480 C.3       1 R3P1        0.0000
      9 H21'        0.7820    2.9860    0.2330 H         1 R3P1        0.0000
     10 O2'         2.0360    2.3130    1.7080 O.3       1 R3P1        0.0000
     11 H22'        1.4840    2.5060    2.4990 H         1 R3P1        0.0000
     12 C3'        -0.1170    1.1530    1.0590 C.3       1 R3P1        0.0000
     13 H31'       -1.0530    1.6910    0.8250 H         1 R3P1        0.0000
     14 O3'        -0.0890    0.7140    2.4270 O.3       1 R3P1        0.0000
     15 P          -0.6630    1.6800    3.5700 P.3       1 R3P1        0.0000
     16 O1P         0.2630    2.8650    3.6100 O.3       1 R3P1        0.0000
     17 O2P        -2.1230    1.8570    3.2750 O.2       1 R3P1        0.0000
     18 O3T        -0.5120    0.7960    4.8840 O.3       1 R3P1        0.0000
     19 H3T        -1.0100   -0.0190    4.7750 H         1 R3P1        0.0000
@<TRIPOS>BOND
     1    3    2 1 
     2    7    5 1 
     3    2    4 1 
     4    2    1 1 
     5    2    8 1 
     6    1    5 1 
     7    5    6 1 
     8    5   12 1 
     9    9    8 1 
    10    8   12 1 
    11    8   10 1 
    12   13   12 1 
    13   12   14 1 
    14   10   11 1 
    15   14   15 1 
    16   17   15 2 
    17   15   16 1 
    18   15   18 1 
    19   19   18 1 
