@<TRIPOS>MOLECULE
C:\Users\Praveer\PycharmProjects\pdb_to_mol2_converter\data\pdb\rbrb.pdb
   27    28     0     0     0
SMALL
GASTEIGER

@<TRIPOS>ATOM
      1 C1          1.1040   -0.0020   -0.0020 C.3       1 RBR1        0.0000
      2 H11         1.3940   -0.5630   -0.8980 H         1 RBR1        0.0000
      3 H12         0.0020   -0.0030   -0.0010 H         1 RBR1        0.0000
      4 C2          1.5980    1.4570    0.0000 C.3       1 RBR1        0.0000
      5 H2          0.7640    2.1370   -0.2320 H         1 RBR1        0.0000
      6 O2          2.6120    1.6950   -0.9800 O.3       1 RBR1        0.0000
      7 C6          3.7090    0.7890   -1.0170 C.3       1 RBR1        0.0000
      8 H6          3.8920    0.2920   -0.0530 H         1 RBR1        0.0000
      9 C9          4.8200   -0.7200   -2.3660 C.3       1 RBR1        0.0000
     10 H91         4.7320   -1.3200   -3.2820 H         1 RBR1        0.0000
     11 H92         5.1960   -1.3570   -1.5510 H         1 RBR1        0.0000
     12 O9          3.5330   -0.2380   -1.9920 O.3       1 RBR1        0.0000
     13 C3          2.1390    1.7360    1.4160 C.3       1 RBR1        0.0000
     14 H31         1.7420    2.6760    1.8220 H         1 RBR1        0.0000
     15 H32         3.2320    1.8560    1.4060 H         1 RBR1        0.0000
     16 C4          1.7340    0.5270    2.2810 C.3       1 RBR1        0.0000
     17 H41         0.7490    0.7160    2.7410 H         1 RBR1        0.0000
     18 H42         2.4320    0.3340    3.1060 H         1 RBR1        0.0000
     19 C5          1.6200   -0.6450    1.2980 C.3       1 RBR1        0.0000
     20 H51         2.6100   -1.0970    1.1300 H         1 RBR1        0.0000
     21 H52         0.9710   -1.4520    1.6630 H         1 RBR1        0.0000
     22 C7          4.9580    1.5280   -1.5050 C.3       1 RBR1        0.0000
     23 H71         5.6290    1.7470   -0.6640 H         1 RBR1        0.0000
     24 H72         4.7000    2.4920   -1.9660 H         1 RBR1        0.0000
     25 C8          5.6080    0.5760   -2.5280 C.3       1 RBR1        0.0000
     26 H81         5.4700    0.9730   -3.5470 H         1 RBR1        0.0000
     27 H82         6.6870    0.4450   -2.3770 H         1 RBR1        0.0000
@<TRIPOS>BOND
     1   26   25 1 
     2   10    9 1 
     3   25   27 1 
     4   25    9 1 
     5   25   22 1 
     6    9   12 1 
     7    9   11 1 
     8   12    7 1 
     9   24   22 1 
    10   22    7 1 
    11   22   23 1 
    12    7    6 1 
    13    7    8 1 
    14    6    4 1 
    15    2    1 1 
    16    5    4 1 
    17    1    3 1 
    18    1    4 1 
    19    1   19 1 
    20    4   13 1 
    21   20   19 1 
    22   19   21 1 
    23   19   16 1 
    24   15   13 1 
    25   13   14 1 
    26   13   16 1 
    27   16   17 1 
    28   16   18 1 
