@<TRIPOS>MOLECULE
C:\Users\Praveer\PycharmProjects\pdb_to_mol2_converter\data\pdb\ribo.pdb
   15    15     0     0     0
SMALL
GASTEIGER

@<TRIPOS>ATOM
      1 O4'         1.2830    0.1200   -0.5070 O.3       1 RIB1        0.0000
      2 C1'         1.8400    1.3250    0.0460 C.3       1 RIB1        0.0000
      3 C4'        -0.0740   -0.0410   -0.0600 C.3       1 RIB1        0.0000
      4 H11'        2.4430    1.8230   -0.7260 H         1 RIB1        0.0000
      5 H12'        2.5100    1.0420    0.8710 H         1 RIB1        0.0000
      6 H41'       -0.1930   -1.0580    0.3420 H         1 RIB1        0.0000
      7 H42'       -0.7250    0.0400   -0.9440 H         1 RIB1        0.0000
      8 C2'         0.6520    2.1570    0.5110 C.3       1 RIB1        0.0000
      9 H21'        0.2390    2.7140   -0.3460 H         1 RIB1        0.0000
     10 O2'         1.0040    3.0820    1.5400 O.3       1 RIB1        0.0000
     11 H22'        0.7890    2.6630    2.3830 H         1 RIB1        0.0000
     12 C3'        -0.3530    1.0700    0.9500 C.3       1 RIB1        0.0000
     13 H31'       -1.3890    1.4360    0.9010 H         1 RIB1        0.0000
     14 O3'        -0.1080    0.5860    2.2760 O.3       1 RIB1        0.0000
     15 H32'        0.6830    0.0360    2.2630 H         1 RIB1        0.0000
@<TRIPOS>BOND
     1    7    3 1 
     2    4    2 1 
     3    1    3 1 
     4    1    2 1 
     5    9    8 1 
     6    3    6 1 
     7    3   12 1 
     8    2    8 1 
     9    2    5 1 
    10    8   12 1 
    11    8   10 1 
    12   13   12 1 
    13   12   14 1 
    14   10   11 1 
    15   15   14 1 
