@<TRIPOS>MOLECULE
C:\Users\Praveer\PycharmProjects\pdb_to_mol2_converter\data\pdb\rin.pdb
   17    18     0     0     0
SMALL
GASTEIGER

@<TRIPOS>ATOM
      1 C7         -0.0120   -2.3970    0.0020 C.ar      1 RIN1        0.0000
      2 C6         -0.7130   -1.1810    0.0050 C.ar      1 RIN1        0.0000
      3 C5          0.0010    0.0220    0.0030 C.ar      1 RIN1        0.0000
      4 C10         1.3880    0.0010   -0.0010 C.ar      1 RIN1        0.0000
      5 C9          2.0970   -1.1990   -0.0050 C.ar      1 RIN1        0.0000
      6 C8          1.3880   -2.4080   -0.0030 C.ar      1 RIN1        0.0000
      7 H4         -1.7530    1.2250    0.0030 H         1 RIN1        0.0000
      8 H7         -0.5570   -3.3310    0.0030 H         1 RIN1        0.0000
      9 H6         -1.7940   -1.1940    0.0090 H         1 RIN1        0.0000
     10 C4         -0.6600    1.2280    0.0020 C.ar      1 RIN1        0.0000
     11 H9          3.1760   -1.1890   -0.0080 H         1 RIN1        0.0000
     12 H8          1.9220   -3.3490   -0.0060 H         1 RIN1        0.0000
     13 C3          0.0010    2.4350   -0.0050 C.ar      1 RIN1        0.0000
     14 H3         -0.5260    3.3870   -0.0110 H         1 RIN1        0.0000
     15 O1          2.0560    1.2000   -0.0010 O.2       1 RIN1        0.0000
     16 C2          1.4170    2.4440   -0.0110 C.ar      1 RIN1        0.0000
     17 O2          2.1160    3.4560   -0.0250 O.2       1 RIN1        0.0000
@<TRIPOS>BOND
     1   17   16 2 
     2   14   13 1 
     3   16   13 ar
     4   16   15 ar
     5   11    5 1 
     6   12    6 1 
     7    5    6 ar
     8    5    4 ar
     9   13   10 ar
    10    6    1 ar
    11    4   15 ar
    12    4    3 ar
    13    1    8 1 
    14    1    2 ar
    15   10    3 ar
    16   10    7 1 
    17    3    2 ar
    18    2    9 1 
