@<TRIPOS>MOLECULE
C:\Users\Praveer\PycharmProjects\pdb_to_mol2_converter\data\pdb\rm3p.pdb
   20    20     0     0     0
SMALL
GASTEIGER

@<TRIPOS>ATOM
      1 O4'         1.3690    0.4680   -0.7330 O.3       1 RM31        0.0000
      2 C1'         2.0570    1.4380    0.0580 C.3       1 RM31        0.0000
      3 H11'        2.8160    1.9410   -0.5550 H         1 RM31        0.0000
      4 H12'        2.5510    0.9070    0.8870 H         1 RM31        0.0000
      5 C4'         0.1000    0.2030   -0.1160 C.3       1 RM31        0.0000
      6 H42'        0.2040   -0.7460    0.4370 H         1 RM31        0.0000
      7 C2'         0.9450    2.3450    0.5630 C.3       1 RM31        0.0000
      8 H21'        0.6170    3.0370   -0.2250 H         1 RM31        0.0000
      9 H22'        1.2340    2.9560    1.4290 H         1 RM31        0.0000
     10 C3'        -0.1610    1.3470    0.8820 C.3       1 RM31        0.0000
     11 H31'       -1.1650    1.7790    0.7350 H         1 RM31        0.0000
     12 O3'         0.0120    0.8640    2.2130 O.3       1 RM31        0.0000
     13 P          -0.6540    1.6400    3.4850 P.3       1 RM31        0.0000
     14 O1P         0.2010    2.8820    3.6910 O.3       1 RM31        0.0000
     15 O2P        -0.5540    0.6370    4.6220 O.3       1 RM31        0.0000
     16 O3P        -2.0840    1.9410    3.0610 O.2       1 RM31        0.0000
     17 C5'        -0.9700    0.0480   -1.1960 C.3       1 RM31        0.0000
     18 H51'       -0.7280   -0.8060   -1.8600 H         1 RM31        0.0000
     19 H52'       -1.0230    0.9750   -1.8040 H         1 RM31        0.0000
     20 H53'       -1.9570   -0.1250   -0.7170 H         1 RM31        0.0000
@<TRIPOS>BOND
     1   18   17 1 
     2   19   17 1 
     3   17   20 1 
     4   17    5 1 
     5    1    5 1 
     6    1    2 1 
     7    3    2 1 
     8    8    7 1 
     9    5    6 1 
    10    5   10 1 
    11    2    7 1 
    12    2    4 1 
    13    7   10 1 
    14    7    9 1 
    15   11   10 1 
    16   10   12 1 
    17   12   13 1 
    18   16   13 2 
    19   13   14 1 
    20   13   15 1 
