@<TRIPOS>MOLECULE
C:\Users\Praveer\PycharmProjects\pdb_to_mol2_converter\data\pdb\rnua.pdb
   32    34     0     0     0
SMALL
GASTEIGER

@<TRIPOS>ATOM
      1 O4'        -0.6020    1.2790   -0.7230 O.3       1 RNU1        0.0000
      2 C4'         0.4690    2.2510   -0.6350 C.3       1 RNU1        0.0000
      3 H42'        0.0800    3.1240   -0.0830 H         1 RNU1        0.0000
      4 C1'        -0.2100    0.0690   -0.0520 C.3       1 RNU1        0.0000
      5 H12'       -0.5580    0.1490    0.9900 H         1 RNU1        0.0000
      6 H21'        1.6790   -0.1730   -1.1260 H         1 RNU1        0.0000
      7 C2'         1.3220    0.0790   -0.1140 C.3       1 RNU1        0.0000
      8 O2'         1.9390   -0.8260    0.8040 O.3       1 RNU1        0.0000
      9 H22'        2.0510   -0.3660    1.6440 H         1 RNU1        0.0000
     10 C5         -1.7740   -3.0190   -1.1540 C.ar      1 RNU1        0.0000
     11 N7         -1.3790   -2.5100   -2.3960 N.ar      1 RNU1        0.0000
     12 C8         -0.7920   -1.3600   -2.0850 C.ar      1 RNU1        0.0000
     13 H8         -0.3470   -0.6690   -2.8040 H         1 RNU1        0.0000
     14 N9         -0.7980   -1.0870   -0.7360 N.ar      1 RNU1        0.0000
     15 N1         -2.6280   -4.4420    0.5560 N.2       1 RNU1        0.0000
     16 C2         -2.2550   -3.5080    1.4750 C.2       1 RNU1        0.0000
     17 H2         -2.4630   -3.7240    2.5270 H         1 RNU1        0.0000
     18 N3         -1.6530   -2.3250    1.1860 N.pl3     1 RNU1        0.0000
     19 C4         -1.4270   -2.1400   -0.1240 C.ar      1 RNU1        0.0000
     20 C6         -2.3910   -4.2270   -0.7670 C.3       1 RNU1        0.0000
     21 N6         -2.7430   -5.2060   -1.6180 N.3       1 RNU1        0.0000
     22 H61        -2.5700   -5.1290   -2.5960 H         1 RNU1        0.0000
     23 H62        -3.1380   -6.0330   -1.2270 H         1 RNU1        0.0000
     24 H31'        2.5990    1.8600   -0.1840 H         1 RNU1        0.0000
     25 C3'         1.5990    1.5670    0.1630 C.3       1 RNU1        0.0000
     26 O3'         1.4960    1.8880    1.5590 O.3       1 RNU1        0.0000
     27 H32'        0.5770    1.8090    1.8400 H         1 RNU1        0.0000
     28 C5'         0.9230    2.7570   -2.0240 C.3       1 RNU1        0.0000
     29 H51'        1.8880    3.3010   -1.9180 H         1 RNU1        0.0000
     30 H52'        0.1700    3.4760   -2.4180 H         1 RNU1        0.0000
     31 O5'         1.0860    1.6960   -2.9670 O.3       1 RNU1        0.0000
     32 H5T         0.2290    1.5690   -3.3850 H         1 RNU1        0.0000
@<TRIPOS>BOND
     1   32   31 1 
     2   31   28 1 
     3   13   12 1 
     4   22   21 1 
     5   30   28 1 
     6   11   12 ar
     7   11   10 ar
     8   12   14 ar
     9   28   29 1 
    10   28    2 1 
    11   21   23 1 
    12   21   20 1 
    13   10   20 1 
    14   10   19 ar
    15    6    7 1 
    16   20   15 1 
    17   14   19 ar
    18   14    4 1 
    19    1    2 1 
    20    1    4 1 
    21    2    3 1 
    22    2   25 1 
    23   24   25 1 
    24   19   18 1 
    25    7    4 1 
    26    7   25 1 
    27    7    8 1 
    28    4    5 1 
    29   25   26 1 
    30   15   16 2 
    31    8    9 1 
    32   18   16 1 
    33   16   17 1 
    34   26   27 1 
