@<TRIPOS>MOLECULE
C:\Users\Praveer\PycharmProjects\pdb_to_mol2_converter\data\pdb\rnuc.pdb
   30    31     0     0     0
SMALL
GASTEIGER

@<TRIPOS>ATOM
      1 O4'        -0.5440    1.2780   -0.8240 O.3       1 RNU1        0.0000
      2 C4'         0.4930    2.2690   -0.6320 C.3       1 RNU1        0.0000
      3 H42'        0.0290    3.1350   -0.1300 H         1 RNU1        0.0000
      4 C1'        -0.1980    0.0600   -0.1400 C.3       1 RNU1        0.0000
      5 H12'       -0.6520    0.1240    0.8630 H         1 RNU1        0.0000
      6 H21'        1.8340   -0.1120   -0.9650 H         1 RNU1        0.0000
      7 C2'         1.3360    0.1190   -0.0110 C.3       1 RNU1        0.0000
      8 O2'         1.8640   -0.7630    0.9840 O.3       1 RNU1        0.0000
      9 H22'        1.8270   -0.3060    1.8340 H         1 RNU1        0.0000
     10 N1         -0.6910   -1.0960   -0.9310 N.ar      1 RNU1        0.0000
     11 C6         -0.1150   -1.4250   -2.1300 C.ar      1 RNU1        0.0000
     12 H6          0.7110   -0.8040   -2.4830 H         1 RNU1        0.0000
     13 C2         -1.8100   -1.8470   -0.4770 C.ar      1 RNU1        0.0000
     14 O2         -2.3630   -1.5160    0.5700 O.2       1 RNU1        0.0000
     15 N3         -2.2350   -2.9180   -1.1990 N.ar      1 RNU1        0.0000
     16 C4         -1.6330   -3.2620   -2.3430 C.ar      1 RNU1        0.0000
     17 N4         -2.0530   -4.3510   -2.9920 N.pl3     1 RNU1        0.0000
     18 H41        -2.8010   -4.8500   -2.5640 H         1 RNU1        0.0000
     19 H42        -1.6380   -4.6810   -3.8320 H         1 RNU1        0.0000
     20 C5         -0.5490   -2.4940   -2.8640 C.ar      1 RNU1        0.0000
     21 H5         -0.0650   -2.7560   -3.8020 H         1 RNU1        0.0000
     22 H31'        2.5720    1.9260    0.0320 H         1 RNU1        0.0000
     23 C3'         1.5480    1.6150    0.2830 C.3       1 RNU1        0.0000
     24 O3'         1.3000    1.9420    1.6590 O.3       1 RNU1        0.0000
     25 H32'        0.3610    1.8410    1.8540 H         1 RNU1        0.0000
     26 C5'         1.0600    2.7660   -1.9830 C.3       1 RNU1        0.0000
     27 H51'        2.0500    3.2480   -1.8270 H         1 RNU1        0.0000
     28 H52'        0.3730    3.5340   -2.4050 H         1 RNU1        0.0000
     29 O5'         1.1820    1.7080   -2.9320 O.3       1 RNU1        0.0000
     30 H5T         0.2730    1.4650   -3.1440 H         1 RNU1        0.0000
@<TRIPOS>BOND
     1   19   17 1 
     2   21   20 1 
     3   30   29 1 
     4   17   18 1 
     5   17   16 1 
     6   29   26 1 
     7   20   16 ar
     8   20   11 ar
     9   12   11 1 
    10   28   26 1 
    11   16   15 ar
    12   11   10 ar
    13   26   27 1 
    14   26    2 1 
    15   15   13 ar
    16    6    7 1 
    17   10   13 ar
    18   10    4 1 
    19    1    2 1 
    20    1    4 1 
    21    2    3 1 
    22    2   23 1 
    23   13   14 2 
    24    4    7 1 
    25    4    5 1 
    26    7   23 1 
    27    7    8 1 
    28   22   23 1 
    29   23   24 1 
    30    8    9 1 
    31   24   25 1 
