@<TRIPOS>MOLECULE
C:\Users\Praveer\PycharmProjects\pdb_to_mol2_converter\data\pdb\rnug.pdb
   33    35     0     0     0
SMALL
GASTEIGER

@<TRIPOS>ATOM
      1 O4'        -0.5650    1.3180   -0.7830 O.3       1 RNU1        0.0000
      2 C4'         0.5130    2.2780   -0.6510 C.3       1 RNU1        0.0000
      3 H42'        0.1090    3.1430   -0.0980 H         1 RNU1        0.0000
      4 C1'        -0.2170    0.0960   -0.1060 C.3       1 RNU1        0.0000
      5 H12'       -0.6180    0.1810    0.9170 H         1 RNU1        0.0000
      6 H21'        1.7270   -0.1870   -1.0780 H         1 RNU1        0.0000
      7 C2'         1.3170    0.0860   -0.0930 C.3       1 RNU1        0.0000
      8 O2'         1.8670   -0.8030    0.8850 O.3       1 RNU1        0.0000
      9 H22'        2.0600   -0.2820    1.6730 H         1 RNU1        0.0000
     10 N9         -0.8130   -1.0500   -0.8250 N.ar      1 RNU1        0.0000
     11 C4         -1.9170   -1.7670   -0.4300 C.ar      1 RNU1        0.0000
     12 N3         -2.6830   -1.5900    0.6620 N.ar      1 RNU1        0.0000
     13 C2         -3.6880   -2.4640    0.7980 C.ar      1 RNU1        0.0000
     14 N1         -3.9070   -3.4670   -0.1160 N.ar      1 RNU1        0.0000
     15 H1         -4.6680   -4.0960    0.0400 H         1 RNU1        0.0000
     16 N2         -4.5260   -2.3900    1.8230 N.pl3     1 RNU1        0.0000
     17 H21        -5.2880   -3.0140    1.9520 H         1 RNU1        0.0000
     18 H22        -4.3690   -1.6470    2.4640 H         1 RNU1        0.0000
     19 C6         -3.1610   -3.6960   -1.2560 C.ar      1 RNU1        0.0000
     20 O6         -3.4990   -4.6420   -1.9710 O.2       1 RNU1        0.0000
     21 C5         -2.0980   -2.7690   -1.4090 C.ar      1 RNU1        0.0000
     22 N7         -1.1260   -2.6520   -2.3900 N.ar      1 RNU1        0.0000
     23 C8         -0.3850   -1.6240   -2.0010 C.ar      1 RNU1        0.0000
     24 H8          0.4860   -1.2540   -2.5440 H         1 RNU1        0.0000
     25 H31'        2.6250    1.8400   -0.1760 H         1 RNU1        0.0000
     26 C3'         1.6150    1.5760    0.1680 C.3       1 RNU1        0.0000
     27 O3'         1.5050    1.9160    1.5590 O.3       1 RNU1        0.0000
     28 H32'        0.5850    1.8500    1.8400 H         1 RNU1        0.0000
     29 C5'         1.0080    2.8000   -2.0190 C.3       1 RNU1        0.0000
     30 H51'        1.9770    3.3330   -1.8900 H         1 RNU1        0.0000
     31 H52'        0.2730    3.5290   -2.4280 H         1 RNU1        0.0000
     32 O5'         1.1750    1.7400   -2.9600 O.3       1 RNU1        0.0000
     33 H5T         0.2820    1.4550   -3.1900 H         1 RNU1        0.0000
@<TRIPOS>BOND
     1   33   32 1 
     2   32   29 1 
     3   24   23 1 
     4   31   29 1 
     5   22   23 ar
     6   22   21 ar
     7   29   30 1 
     8   29    2 1 
     9   23   10 ar
    10   20   19 2 
    11   21   19 ar
    12   21   11 ar
    13   19   14 ar
    14    6    7 1 
    15   10   11 ar
    16   10    4 1 
    17    1    2 1 
    18    1    4 1 
    19    2    3 1 
    20    2   26 1 
    21   11   12 ar
    22   25   26 1 
    23   14   15 1 
    24   14   13 ar
    25    4    7 1 
    26    4    5 1 
    27    7   26 1 
    28    7    8 1 
    29   26   27 1 
    30   12   13 ar
    31   13   16 1 
    32    8    9 1 
    33   27   28 1 
    34   16   17 1 
    35   16   18 1 
