@<TRIPOS>MOLECULE
C:\Users\Praveer\PycharmProjects\pdb_to_mol2_converter\data\pdb\rnus.pdb
   26    27     0     0     0
SMALL
GASTEIGER

@<TRIPOS>ATOM
      1 O4'        -0.5820    0.8900   -0.5910 O.3       1 RNU1        0.0000
      2 C4'         0.1630    2.1390   -0.7070 C.3       1 RNU1        0.0000
      3 H42'       -0.3960    2.9410   -0.1760 H         1 RNU1        0.0000
      4 C1'         0.2800   -0.1410   -0.1260 C.3       1 RNU1        0.0000
      5 H12'       -0.0440   -0.3990    0.9090 H         1 RNU1        0.0000
      6 C2'         1.6950    0.3720   -0.1470 C.3       1 RNU1        0.0000
      7 H21'        2.1860    0.1750   -1.1280 H         1 RNU1        0.0000
      8 O2'         2.4480   -0.2020    0.9050 O.3       1 RNU1        0.0000
      9 H22'        2.7580    0.5170    1.4710 H         1 RNU1        0.0000
     10 H31'        2.3010    2.4390   -0.4560 H         1 RNU1        0.0000
     11 C3'         1.4810    1.8710    0.0420 C.3       1 RNU1        0.0000
     12 O3'         1.4130    2.2590    1.4260 O.3       1 RNU1        0.0000
     13 H32'        0.6890    1.7820    1.8480 H         1 RNU1        0.0000
     14 C5'         0.3300    2.5430   -2.1830 C.3       1 RNU1        0.0000
     15 H51'        0.7770    3.5600   -2.2290 H         1 RNU1        0.0000
     16 H52'       -0.6780    2.6170   -2.6480 H         1 RNU1        0.0000
     17 O5'         1.1460    1.6520   -2.9490 O.3       1 RNU1        0.0000
     18 H5T         0.8590    1.7280   -3.8660 H         1 RNU1        0.0000
     19 CG         -0.2930   -1.3730   -2.2720 C.ar      1 RNU1        0.0000
     20 HG         -0.7340   -0.5360   -2.7940 H         1 RNU1        0.0000
     21 CD2         0.0230   -2.6120   -2.7280 C.ar      1 RNU1        0.0000
     22 HD2        -0.0890   -3.0370   -3.7190 H         1 RNU1        0.0000
     23 ND1         0.0710   -1.3490   -0.9390 N.ar      1 RNU1        0.0000
     24 CE1         0.5830   -2.5740   -0.6640 C.ar      1 RNU1        0.0000
     25 HE1         0.9910   -2.8270    0.3160 H         1 RNU1        0.0000
     26 NE2         0.5750   -3.3730   -1.7160 N.ar      1 RNU1        0.0000
@<TRIPOS>BOND
     1   18   17 1 
     2   22   21 1 
     3   17   14 1 
     4   20   19 1 
     5   21   19 ar
     6   21   26 ar
     7   16   14 1 
     8   19   23 ar
     9   15   14 1 
    10   14    2 1 
    11   26   24 ar
    12    7    6 1 
    13   23   24 ar
    14   23    4 1 
    15    2    1 1 
    16    2    3 1 
    17    2   11 1 
    18   24   25 1 
    19    1    4 1 
    20   10   11 1 
    21    6    4 1 
    22    6   11 1 
    23    6    8 1 
    24    4    5 1 
    25   11   12 1 
    26    8    9 1 
    27   12   13 1 
