@<TRIPOS>MOLECULE
C:\Users\Praveer\PycharmProjects\pdb_to_mol2_converter\data\pdb\rsrf.pdb
   19    20     0     0     0
SMALL
GASTEIGER

@<TRIPOS>ATOM
      1 C1          0.0070   -0.0580   -0.0100 C.3       1 RSR1        0.0000
      2 H11        -0.4220   -0.8120   -0.7030 H         1 RSR1        0.0000
      3 C2         -0.5470    1.3420   -0.1260 C.3       1 RSR1        0.0000
      4 H21        -0.7320    1.6230   -1.1810 H         1 RSR1        0.0000
      5 O4          1.4170    0.0300   -0.1640 O.3       1 RSR1        0.0000
      6 C4          1.7960    1.4080   -0.0190 C.3       1 RSR1        0.0000
      7 H41         2.1340    1.7620   -1.0030 H         1 RSR1        0.0000
      8 H42         2.6600    1.4570    0.6600 H         1 RSR1        0.0000
      9 O6         -0.3030   -0.4130    1.3310 O.3       1 RSR1        0.0000
     10 C6         -1.6400    0.0400    1.5870 C.3       1 RSR1        0.0000
     11 H61        -1.7510    0.2190    2.6660 H         1 RSR1        0.0000
     12 H62        -2.3270   -0.7690    1.2970 H         1 RSR1        0.0000
     13 C5         -1.8220    1.2990    0.7240 C.3       1 RSR1        0.0000
     14 H51        -2.7170    1.2240    0.0880 H         1 RSR1        0.0000
     15 H52        -1.9330    2.2100    1.3290 H         1 RSR1        0.0000
     16 C3          0.5850    2.1990    0.4810 C.3       1 RSR1        0.0000
     17 H31         0.5630    3.2320    0.1050 H         1 RSR1        0.0000
     18 O3          0.5830    2.2200    1.9040 O.3       1 RSR1        0.0000
     19 H32         0.4770    1.2950    2.1730 H         1 RSR1        0.0000
@<TRIPOS>BOND
     1    4    3 1 
     2    7    6 1 
     3    2    1 1 
     4    5    6 1 
     5    5    1 1 
     6    3    1 1 
     7    3   16 1 
     8    3   13 1 
     9    6   16 1 
    10    6    8 1 
    11    1    9 1 
    12   14   13 1 
    13   17   16 1 
    14   16   18 1 
    15   13   15 1 
    16   13   10 1 
    17   12   10 1 
    18    9   10 1 
    19   10   11 1 
    20   18   19 1 
