@<TRIPOS>MOLECULE
C:\Users\Praveer\PycharmProjects\pdb_to_mol2_converter\data\pdb\rtac.pdb
   49    49     0     0     0
SMALL
GASTEIGER

@<TRIPOS>ATOM
      1 C1         -0.1110    0.0710   -0.0010 C.3       1 RTA1        0.0000
      2 C16        -0.5590   -0.7250    1.2490 C.3       1 RTA1        0.0000
      3 H161       -0.1790   -1.7680    1.2090 H         1 RTA1        0.0000
      4 H162       -1.6640   -0.7970    1.2900 H         1 RTA1        0.0000
      5 H163       -0.1850   -0.2440    2.1780 H         1 RTA1        0.0000
      6 C17        -0.7730   -0.5730   -1.2480 C.3       1 RTA1        0.0000
      7 H171       -1.8790   -0.5690   -1.1700 H         1 RTA1        0.0000
      8 H172       -0.4510   -1.6310   -1.3510 H         1 RTA1        0.0000
      9 H173       -0.4680   -0.0350   -2.1720 H         1 RTA1        0.0000
     10 C2          1.4220   -0.1300   -0.1670 C.3       1 RTA1        0.0000
     11 H21         1.6230   -0.5340   -1.1850 H         1 RTA1        0.0000
     12 H22         1.7530   -0.9610    0.5010 H         1 RTA1        0.0000
     13 C3          2.3470    1.0710    0.0830 C.3       1 RTA1        0.0000
     14 H31         3.1620    1.0290   -0.6850 H         1 RTA1        0.0000
     15 H32         2.8330    0.9640    1.0840 H         1 RTA1        0.0000
     16 C4          1.6930    2.4620    0.0050 C.3       1 RTA1        0.0000
     17 H41         1.9520    2.9140   -0.9770 H         1 RTA1        0.0000
     18 H42         2.1890    3.0870    0.7860 H         1 RTA1        0.0000
     19 C5          0.2160    2.5920    0.1790 C.2       1 RTA1        0.0000
     20 C6         -0.6190    1.5180    0.1120 C.2       1 RTA1        0.0000
     21 C18        -0.2390    4.0330    0.3710 C.3       1 RTA1        0.0000
     22 H181       -0.2440    4.6070   -0.5860 H         1 RTA1        0.0000
     23 H182        0.4360    4.5690    1.0660 H         1 RTA1        0.0000
     24 H183       -1.2340    4.1310    0.8540 H         1 RTA1        0.0000
     25 C7         -2.0890    1.7090    0.2630 C.2       1 RTA1        0.0000
     26 H71        -2.5740    1.0410    0.9960 H         1 RTA1        0.0000
     27 C8         -2.8720    2.5230   -0.4840 C.2       1 RTA1        0.0000
     28 H81        -2.3680    3.1960   -1.2110 H         1 RTA1        0.0000
     29 C9         -4.3340    2.7200   -0.3230 C.2       1 RTA1        0.0000
     30 C19        -5.1310    1.4460   -0.1080 C.3       1 RTA1        0.0000
     31 H191       -4.8030    0.9220    0.8110 H         1 RTA1        0.0000
     32 H192       -5.0310    0.7430   -0.9660 H         1 RTA1        0.0000
     33 H193       -6.2230    1.6040    0.0260 H         1 RTA1        0.0000
     34 C10        -4.8620    3.9660   -0.3320 C.2       1 RTA1        0.0000
     35 H101       -4.1580    4.7940   -0.4980 H         1 RTA1        0.0000
     36 C11        -6.2860    4.3360   -0.1700 C.2       1 RTA1        0.0000
     37 H111       -7.0300    3.5210   -0.1850 H         1 RTA1        0.0000
     38 C12        -6.7110    5.6210   -0.0620 C.2       1 RTA1        0.0000
     39 H121       -5.9460    6.4170   -0.1140 H         1 RTA1        0.0000
     40 C13        -8.1230    6.1000    0.0510 C.2       1 RTA1        0.0000
     41 C20        -9.1470    4.9850    0.1880 C.3       1 RTA1        0.0000
     42 H201       -8.9240    4.3360    1.0600 H         1 RTA1        0.0000
     43 H202       -9.1690    4.3520   -0.7250 H         1 RTA1        0.0000
     44 H203      -10.1790    5.3740    0.3370 H         1 RTA1        0.0000
     45 C14        -8.4200    7.4170    0.0390 C.2       1 RTA1        0.0000
     46 H141       -7.5730    8.1080   -0.0640 H         1 RTA1        0.0000
     47 C15        -9.7370    8.1290    0.1170 C.2       1 RTA1        0.0000
     48 O29        -9.6470    9.3780    0.3150 O.co2     1 RTA1        0.0000
     49 O29B      -10.7690    7.5980   -0.3860 O.co2     1 RTA1        0.0000
@<TRIPOS>BOND
     1    9    6 1 
     2    8    6 1 
     3    6    7 1 
     4    6    1 1 
     5   28   27 1 
     6   11   10 1 
     7   17   16 1 
     8   32   30 1 
     9   43   41 1 
    10   14   13 1 
    11   22   21 1 
    12   35   34 1 
    13   27   29 1 
    14   27   25 2 
    15   49   47 ar
    16   34   29 2 
    17   34   36 1 
    18   29   30 1 
    19   37   36 1 
    20   36   38 2 
    21   10    1 1 
    22   10   13 1 
    23   10   12 1 
    24   39   38 1 
    25   30   33 1 
    26   30   31 1 
    27   46   45 1 
    28   38   40 1 
    29    1   20 1 
    30    1    2 1 
    31   16   13 1 
    32   16   19 1 
    33   16   18 1 
    34   45   40 2 
    35   45   47 1 
    36   40   41 1 
    37   13   15 1 
    38   20   19 2 
    39   20   25 1 
    40   47   48 ar
    41   19   21 1 
    42   41   44 1 
    43   41   42 1 
    44   25   26 1 
    45   21   24 1 
    46   21   23 1 
    47    3    2 1 
    48    2    4 1 
    49    2    5 1 
