@<TRIPOS>MOLECULE
C:\Users\Praveer\PycharmProjects\pdb_to_mol2_converter\data\pdb\rtal.pdb
   49    49     0     0     0
SMALL
GASTEIGER

@<TRIPOS>ATOM
      1 C1         -0.2090    0.2150    0.0560 C.3       1 RTA1        0.0000
      2 C2          1.2930   -0.0580   -0.2770 C.3       1 RTA1        0.0000
      3 H21         1.3680   -0.2260   -1.3750 H         1 RTA1        0.0000
      4 H22         1.5870   -1.0160    0.2080 H         1 RTA1        0.0000
      5 C3          2.3400    1.0010    0.1190 C.3       1 RTA1        0.0000
      6 H31         3.2580    0.8820   -0.5130 H         1 RTA1        0.0000
      7 H32         2.6560    0.8290    1.1730 H         1 RTA1        0.0000
      8 C4          1.8360    2.4390   -0.0290 C.3       1 RTA1        0.0000
      9 H41         2.0590    2.8080   -1.0530 H         1 RTA1        0.0000
     10 H42         2.4620    3.0840    0.6240 H         1 RTA1        0.0000
     11 C5          0.3770    2.6610    0.2780 C.2       1 RTA1        0.0000
     12 C6         -0.5720    1.6800    0.2630 C.2       1 RTA1        0.0000
     13 C7         -2.0370    1.9420    0.4330 C.3       1 RTA1        0.0000
     14 H71        -2.5220    1.4350    1.2750 H         1 RTA1        0.0000
     15 C8         -2.8670    2.4850   -0.4910 C.3       1 RTA1        0.0000
     16 H81        -2.4140    3.0000   -1.3510 H         1 RTA1        0.0000
     17 C9         -4.3470    2.5780   -0.3860 C.2       1 RTA1        0.0000
     18 C10        -4.9540    3.7810   -0.4150 C.2       1 RTA1        0.0000
     19 H101       -4.2770    4.6440   -0.5300 H         1 RTA1        0.0000
     20 C11        -6.3960    4.1170   -0.2720 C.2       1 RTA1        0.0000
     21 H111       -7.1170    3.3030   -0.0790 H         1 RTA1        0.0000
     22 C12        -6.7960    5.4060   -0.2950 C.2       1 RTA1        0.0000
     23 H121       -5.9940    6.1490   -0.4490 H         1 RTA1        0.0000
     24 C13        -8.1450    5.9990   -0.0820 C.2       1 RTA1        0.0000
     25 C14        -8.2660    7.3440   -0.0150 C.2       1 RTA1        0.0000
     26 H141       -7.3610    7.9570   -0.1140 H         1 RTA1        0.0000
     27 C15        -9.5430    8.0590    0.1770 C.2       1 RTA1        0.0000
     28 O15        -9.6060    9.2630    0.2080 O.2       1 RTA1        0.0000
     29 H15       -10.4590    7.4390    0.2550 H         1 RTA1        0.0000
     30 C16        -0.6510   -0.6270    1.2810 C.3       1 RTA1        0.0000
     31 H161       -0.2270   -0.2410    2.2310 H         1 RTA1        0.0000
     32 H162       -0.3250   -1.6800    1.1410 H         1 RTA1        0.0000
     33 H163       -1.7590   -0.6440    1.3650 H         1 RTA1        0.0000
     34 C17        -1.0180   -0.3080   -1.1560 C.3       1 RTA1        0.0000
     35 H171       -0.7720   -1.3760   -1.3240 H         1 RTA1        0.0000
     36 H172       -0.7710    0.2690   -2.0730 H         1 RTA1        0.0000
     37 H173       -2.1130   -0.2460   -0.9870 H         1 RTA1        0.0000
     38 C18         0.0470    4.1100    0.5180 C.3       1 RTA1        0.0000
     39 H181        0.2320    4.7000   -0.3980 H         1 RTA1        0.0000
     40 H182        0.6660    4.5550    1.3290 H         1 RTA1        0.0000
     41 H183       -1.0120    4.2770    0.7830 H         1 RTA1        0.0000
     42 C19        -5.0240    1.2390   -0.1620 C.3       1 RTA1        0.0000
     43 H191       -4.6370    0.7510    0.7590 H         1 RTA1        0.0000
     44 H192       -4.8430    0.5300   -1.0010 H         1 RTA1        0.0000
     45 H193       -6.1260    1.3280   -0.0490 H         1 RTA1        0.0000
     46 C20        -9.2880    5.0150    0.0680 C.3       1 RTA1        0.0000
     47 H201       -9.1330    4.3580    0.9510 H         1 RTA1        0.0000
     48 H202       -9.3950    4.3610   -0.8250 H         1 RTA1        0.0000
     49 H203      -10.2760    5.5040    0.2160 H         1 RTA1        0.0000
@<TRIPOS>BOND
     1   36   34 1 
     2    3    2 1 
     3   16   15 1 
     4   35   34 1 
     5   34   37 1 
     6   34    1 1 
     7    9    8 1 
     8   44   42 1 
     9   48   46 1 
    10   19   18 1 
    11    6    5 1 
    12   15   17 1 
    13   15   13 1 
    14   23   22 1 
    15   18   17 2 
    16   18   20 1 
    17   39   38 1 
    18   17   42 1 
    19   22   20 2 
    20   22   24 1 
    21    2    1 1 
    22    2    5 1 
    23    2    4 1 
    24   20   21 1 
    25   42   45 1 
    26   42   43 1 
    27   26   25 1 
    28   24   25 2 
    29   24   46 1 
    30    8    5 1 
    31    8   11 1 
    32    8   10 1 
    33   25   27 1 
    34    1   12 1 
    35    1   30 1 
    36   46   49 1 
    37   46   47 1 
    38    5    7 1 
    39   27   28 2 
    40   27   29 1 
    41   12   11 2 
    42   12   13 1 
    43   11   38 1 
    44   13   14 1 
    45   38   41 1 
    46   38   40 1 
    47   32   30 1 
    48   30   33 1 
    49   30   31 1 
