@<TRIPOS>MOLECULE
C:\Users\Praveer\PycharmProjects\pdb_to_mol2_converter\data\pdb\rtol.pdb
   51    51     0     0     0
SMALL
GASTEIGER

@<TRIPOS>ATOM
      1 C1         -0.2050    0.1910    0.0370 C.3       1 RTO1        0.0000
      2 C2          1.2990   -0.0800   -0.3030 C.3       1 RTO1        0.0000
      3 H21         1.3890   -0.1410   -1.4120 H         1 RTO1        0.0000
      4 H22         1.5970   -1.0690    0.1130 H         1 RTO1        0.0000
      5 C3          2.2930    0.9890    0.1790 C.3       1 RTO1        0.0000
      6 H31         3.2440    0.8710   -0.3900 H         1 RTO1        0.0000
      7 H32         2.5280    0.8400    1.2560 H         1 RTO1        0.0000
      8 C4          1.7840    2.4240   -0.0460 C.3       1 RTO1        0.0000
      9 H41         1.9730    2.7090   -1.1070 H         1 RTO1        0.0000
     10 H42         2.3930    3.0970    0.5960 H         1 RTO1        0.0000
     11 C5          0.3390    2.6770    0.2640 C.2       1 RTO1        0.0000
     12 C6         -0.5820    1.6650    0.2460 C.2       1 RTO1        0.0000
     13 C7         -2.0310    1.9420    0.4510 C.2       1 RTO1        0.0000
     14 H71        -2.5120    1.3980    1.2720 H         1 RTO1        0.0000
     15 C8         -2.8410    2.5670   -0.4320 C.2       1 RTO1        0.0000
     16 H81        -2.3610    3.0900   -1.2710 H         1 RTO1        0.0000
     17 C9         -4.3140    2.6630   -0.3360 C.2       1 RTO1        0.0000
     18 C10        -4.9410    3.8560   -0.3860 C.2       1 RTO1        0.0000
     19 H101       -4.2990    4.7410   -0.5210 H         1 RTO1        0.0000
     20 C11        -6.3950    4.1250   -0.2670 C.2       1 RTO1        0.0000
     21 H111       -7.0980    3.2850   -0.1560 H         1 RTO1        0.0000
     22 C12        -6.8560    5.3860   -0.2820 C.2       1 RTO1        0.0000
     23 H121       -6.0950    6.1690   -0.4070 H         1 RTO1        0.0000
     24 C13        -8.2350    5.9030   -0.1070 C.2       1 RTO1        0.0000
     25 C14        -8.4260    7.2340   -0.0820 C.2       1 RTO1        0.0000
     26 H141       -7.5440    7.8840   -0.2290 H         1 RTO1        0.0000
     27 C15        -9.6950    8.0140    0.1060 C.3       1 RTO1        0.0000
     28 H151      -10.1670    7.7700    1.0860 H         1 RTO1        0.0000
     29 H152      -10.4280    7.8060   -0.7110 H         1 RTO1        0.0000
     30 OR         -9.3540    9.3940    0.0870 O.3       1 RTO1        0.0000
     31 HR        -10.1620    9.9040    0.1310 H         1 RTO1        0.0000
     32 C16        -0.6260   -0.6350    1.2860 C.3       1 RTO1        0.0000
     33 H161       -0.1550   -0.2430    2.2110 H         1 RTO1        0.0000
     34 H162       -0.3320   -1.6980    1.1690 H         1 RTO1        0.0000
     35 H163       -1.7290   -0.6170    1.4200 H         1 RTO1        0.0000
     36 C17        -1.0370   -0.3210   -1.1660 C.3       1 RTO1        0.0000
     37 H171       -0.8190   -1.3870   -1.3710 H         1 RTO1        0.0000
     38 H172       -0.8000    0.2730   -2.0750 H         1 RTO1        0.0000
     39 H173       -2.1270   -0.2420   -0.9770 H         1 RTO1        0.0000
     40 C18         0.0090    4.1390    0.4910 C.3       1 RTO1        0.0000
     41 H181        0.2560    4.7410   -0.4080 H         1 RTO1        0.0000
     42 H182        0.6170    4.5560    1.3310 H         1 RTO1        0.0000
     43 H183       -1.0620    4.3360    0.7070 H         1 RTO1        0.0000
     44 C19        -4.9750    1.3190   -0.1440 C.3       1 RTO1        0.0000
     45 H191       -4.6000    0.8000    0.7680 H         1 RTO1        0.0000
     46 H192       -4.7600    0.6570   -1.0120 H         1 RTO1        0.0000
     47 H193       -6.0810    1.4010   -0.0610 H         1 RTO1        0.0000
     48 C20        -9.3030    4.8440    0.0780 C.3       1 RTO1        0.0000
     49 H201       -9.0840    4.2060    0.9620 H         1 RTO1        0.0000
     50 H202       -9.3610    4.1790   -0.8090 H         1 RTO1        0.0000
     51 H203      -10.3170    5.2710    0.2310 H         1 RTO1        0.0000
@<TRIPOS>BOND
     1   38   36 1 
     2    3    2 1 
     3   37   36 1 
     4   16   15 1 
     5   36   39 1 
     6   36    1 1 
     7    9    8 1 
     8   46   44 1 
     9   50   48 1 
    10   29   27 1 
    11   19   18 1 
    12   15   17 1 
    13   15   13 2 
    14   41   40 1 
    15   23   22 1 
    16    6    5 1 
    17   18   17 2 
    18   18   20 1 
    19   17   44 1 
    20    2    1 1 
    21    2    4 1 
    22    2    5 1 
    23   22   20 2 
    24   22   24 1 
    25   20   21 1 
    26   26   25 1 
    27   44   47 1 
    28   44   45 1 
    29   24   25 2 
    30   24   48 1 
    31   25   27 1 
    32    8    5 1 
    33    8   11 1 
    34    8   10 1 
    35    1   12 1 
    36    1   32 1 
    37   48   51 1 
    38   48   49 1 
    39   30   27 1 
    40   30   31 1 
    41   27   28 1 
    42    5    7 1 
    43   12   11 2 
    44   12   13 1 
    45   11   40 1 
    46   13   14 1 
    47   40   43 1 
    48   40   42 1 
    49   34   32 1 
    50   32   35 1 
    51   32   33 1 
