@<TRIPOS>MOLECULE
C:\Users\Praveer\PycharmProjects\pdb_to_mol2_converter\data\pdb\sapa.pdb
  122   121     0     0     0
SMALL
GASTEIGER

@<TRIPOS>ATOM
      1 P           1.4220    0.1120   -0.1470 P.3       1 SAP1        0.0000
      2 O13         1.9550   -0.4120    1.1200 O.3       1 SAP1        0.0000
      3 O14         1.9740   -0.4100   -1.4080 O.2       1 SAP1        0.0000
      4 O12         1.8530    1.6180   -0.1330 O.3       1 SAP1        0.0000
      5 H12         2.8100    1.6190   -0.0580 H         1 SAP1        0.0000
      6 O11        -0.1630    0.0800   -0.1620 O.3       1 SAP1        0.0000
      7 C1         -0.7760   -1.2060   -0.0150 C.3       1 SAP1        0.0000
      8 HA         -0.4450   -1.6980    0.9320 H         1 SAP1        0.0000
      9 HB         -0.5060   -1.8670   -0.8730 H         1 SAP1        0.0000
     10 C2         -2.3230   -1.0790    0.0070 C.3       1 SAP1        0.0000
     11 HS         -2.6190   -0.4950    0.9110 H         1 SAP1        0.0000
     12 O21        -2.8950   -2.4030    0.0040 O.3       1 SAP1        0.0000
     13 C21        -2.8480   -3.0150    1.1790 C.2       1 SAP1        0.0000
     14 O22        -2.5500   -2.5100    2.2430 O.2       1 SAP1        0.0000
     15 C22        -3.2170   -4.4890    1.0030 C.3       1 SAP1        0.0000
     16 H2R        -2.4390   -5.0780    1.5330 H         1 SAP1        0.0000
     17 H2S        -3.1890   -4.7550   -0.0730 H         1 SAP1        0.0000
     18 C3         -2.8420   -0.2940   -1.2320 C.3       1 SAP1        0.0000
     19 HX         -2.6000   -0.9130   -2.1280 H         1 SAP1        0.0000
     20 HY         -2.2650    0.6570   -1.2990 H         1 SAP1        0.0000
     21 O31        -4.2630   -0.0120   -1.1370 O.3       1 SAP1        0.0000
     22 C31        -4.7770    0.4590   -2.2720 C.2       1 SAP1        0.0000
     23 O32        -4.1640    0.6140   -3.3120 O.2       1 SAP1        0.0000
     24 C32        -6.2600    0.7950   -2.0780 C.3       1 SAP1        0.0000
     25 H2X        -6.3320    1.5520   -1.2710 H         1 SAP1        0.0000
     26 H2Y        -6.7850   -0.1270   -1.7540 H         1 SAP1        0.0000
     27 C23        -4.6030   -4.8000    1.6070 C.3       1 SAP1        0.0000
     28 H3R        -4.6370   -4.4630    2.6680 H         1 SAP1        0.0000
     29 H3S        -4.7450   -5.9060    1.6010 H         1 SAP1        0.0000
     30 C24        -5.7360   -4.1440    0.7980 C.3       1 SAP1        0.0000
     31 H4R        -5.6490   -4.4810   -0.2600 H         1 SAP1        0.0000
     32 H4S        -5.5800   -3.0410    0.8010 H         1 SAP1        0.0000
     33 C25        -7.1050   -4.4700    1.3350 C.2       1 SAP1        0.0000
     34 H5R        -7.1320   -5.1720    2.1840 H         1 SAP1        0.0000
     35 C26        -8.2570   -3.9670    0.8540 C.2       1 SAP1        0.0000
     36 H6R        -9.2070   -4.2690    1.3230 H         1 SAP1        0.0000
     37 C27        -8.3920   -2.9970   -0.2950 C.3       1 SAP1        0.0000
     38 H7R        -7.3980   -2.6270   -0.6350 H         1 SAP1        0.0000
     39 H7S        -8.9350   -2.0990    0.0670 H         1 SAP1        0.0000
     40 C28        -9.0880   -3.6510   -1.4660 C.2       1 SAP1        0.0000
     41 H8R        -8.6360   -4.6030   -1.7920 H         1 SAP1        0.0000
     42 C29       -10.1720   -3.1980   -2.1300 C.2       1 SAP1        0.0000
     43 H9R       -10.5680   -3.8110   -2.9570 H         1 SAP1        0.0000
     44 C210      -10.9430   -1.9250   -1.8640 C.3       1 SAP1        0.0000
     45 H10R      -10.4400   -1.2930   -1.1010 H         1 SAP1        0.0000
     46 H10S      -11.9290   -2.1930   -1.4250 H         1 SAP1        0.0000
     47 C211      -11.0950   -1.1040   -3.1240 C.2       1 SAP1        0.0000
     48 H11R      -10.1390   -0.7920   -3.5760 H         1 SAP1        0.0000
     49 C212      -12.2380   -0.7130   -3.7270 C.2       1 SAP1        0.0000
     50 H12R      -12.1660   -0.1020   -4.6420 H         1 SAP1        0.0000
     51 C213      -13.6560   -1.0110   -3.3050 C.3       1 SAP1        0.0000
     52 H13R      -13.6980   -1.6760   -2.4150 H         1 SAP1        0.0000
     53 H13S      -14.1480   -1.5760   -4.1270 H         1 SAP1        0.0000
     54 C214      -14.3960    0.2680   -2.9920 C.2       1 SAP1        0.0000
     55 H14R      -14.0390    0.8030   -2.0980 H         1 SAP1        0.0000
     56 C215      -15.4160    0.7900   -3.7000 C.2       1 SAP1        0.0000
     57 H15R      -15.8720    1.7380   -3.3700 H         1 SAP1        0.0000
     58 C216      -16.0140    0.1740   -4.9400 C.3       1 SAP1        0.0000
     59 H16R      -16.2620   -0.8980   -4.7670 H         1 SAP1        0.0000
     60 H16S      -15.2800    0.2110   -5.7760 H         1 SAP1        0.0000
     61 C217      -17.2980    0.8880   -5.3980 C.3       1 SAP1        0.0000
     62 H17R      -17.0800    1.9600   -5.6040 H         1 SAP1        0.0000
     63 H17S      -18.0630    0.8430   -4.5910 H         1 SAP1        0.0000
     64 C218      -17.8870    0.2560   -6.6660 C.3       1 SAP1        0.0000
     65 H18R      -18.1210   -0.8140   -6.4670 H         1 SAP1        0.0000
     66 H18S      -17.1250    0.2890   -7.4770 H         1 SAP1        0.0000
     67 C219      -19.1570    0.9700   -7.1420 C.3       1 SAP1        0.0000
     68 H19R      -18.9160    2.0410   -7.3310 H         1 SAP1        0.0000
     69 H19S      -19.9130    0.9360   -6.3240 H         1 SAP1        0.0000
     70 C220      -19.7600    0.3590   -8.4090 C.3       1 SAP1        0.0000
     71 H20R      -20.0310   -0.7050   -8.2370 H         1 SAP1        0.0000
     72 H20S      -19.0300    0.4030   -9.2470 H         1 SAP1        0.0000
     73 H20T      -20.6760    0.9110   -8.7110 H         1 SAP1        0.0000
     74 C33        -6.9000    1.3450   -3.3770 C.3       1 SAP1        0.0000
     75 H3X        -6.8490    0.5590   -4.1640 H         1 SAP1        0.0000
     76 H3Y        -6.3130    2.2200   -3.7410 H         1 SAP1        0.0000
     77 C34        -8.3630    1.7900   -3.2120 C.3       1 SAP1        0.0000
     78 H4X        -8.4190    2.6270   -2.4820 H         1 SAP1        0.0000
     79 H4Y        -8.9510    0.9450   -2.7930 H         1 SAP1        0.0000
     80 C35        -8.9850    2.2400   -4.5470 C.3       1 SAP1        0.0000
     81 H5X        -8.9170    1.3990   -5.2720 H         1 SAP1        0.0000
     82 H5Y        -8.3900    3.0840   -4.9640 H         1 SAP1        0.0000
     83 C36       -10.4560    2.6770   -4.4300 C.3       1 SAP1        0.0000
     84 H6X       -10.5320    3.5390   -3.7300 H         1 SAP1        0.0000
     85 H6Y       -11.0460    1.8430   -3.9950 H         1 SAP1        0.0000
     86 C37       -11.0650    3.0660   -5.7900 C.3       1 SAP1        0.0000
     87 H7X       -10.9230    2.2260   -6.5070 H         1 SAP1        0.0000
     88 H7Y       -10.5110    3.9440   -6.1890 H         1 SAP1        0.0000
     89 C38       -12.5670    3.3990   -5.7220 C.3       1 SAP1        0.0000
     90 H8X       -12.7240    4.2030   -4.9700 H         1 SAP1        0.0000
     91 H8Y       -13.1250    2.5010   -5.3750 H         1 SAP1        0.0000
     92 C39       -13.1440    3.8590   -7.0740 C.3       1 SAP1        0.0000
     93 H9X       -12.9650    3.0660   -7.8340 H         1 SAP1        0.0000
     94 H9Y       -12.5960    4.7700   -7.4020 H         1 SAP1        0.0000
     95 C310      -14.6500    4.1750   -7.0280 C.3       1 SAP1        0.0000
     96 H10X      -14.8340    4.9410   -6.2420 H         1 SAP1        0.0000
     97 H10Y      -15.2060    3.2540   -6.7410 H         1 SAP1        0.0000
     98 C311      -15.2080    4.7000   -8.3650 C.3       1 SAP1        0.0000
     99 H11X      -15.0370    3.9380   -9.1570 H         1 SAP1        0.0000
    100 H11Y      -14.6510    5.6190   -8.6560 H         1 SAP1        0.0000
    101 C312      -16.7110    5.0300   -8.3020 C.3       1 SAP1        0.0000
    102 H12X      -16.8830    5.7860   -7.5040 H         1 SAP1        0.0000
    103 H12Y      -17.2730    4.1100   -8.0250 H         1 SAP1        0.0000
    104 C313      -17.2720    5.5750   -9.6250 C.3       1 SAP1        0.0000
    105 H13X      -17.1140    4.8220  -10.4290 H         1 SAP1        0.0000
    106 H13Y      -16.7150    6.4960   -9.9090 H         1 SAP1        0.0000
    107 C314      -18.7700    5.9100   -9.5500 C.3       1 SAP1        0.0000
    108 H14X      -18.9390    6.6700   -8.7540 H         1 SAP1        0.0000
    109 H14Y      -19.3400    4.9950   -9.2700 H         1 SAP1        0.0000
    110 C315      -19.3100    6.4500  -10.8830 C.3       1 SAP1        0.0000
    111 H15X      -19.1380    5.6900  -11.6780 H         1 SAP1        0.0000
    112 H15Y      -18.7400    7.3650  -11.1610 H         1 SAP1        0.0000
    113 C316      -20.8050    6.7880  -10.8280 C.3       1 SAP1        0.0000
    114 H16X      -20.9770    7.5520  -10.0370 H         1 SAP1        0.0000
    115 H16Y      -21.3750    5.8740  -10.5480 H         1 SAP1        0.0000
    116 C317      -21.3410    7.3220  -12.1620 C.3       1 SAP1        0.0000
    117 H17X      -21.1610    6.5560  -12.9510 H         1 SAP1        0.0000
    118 H17Y      -20.7650    8.2340  -12.4390 H         1 SAP1        0.0000
    119 C318      -22.8330    7.6610  -12.1230 C.3       1 SAP1        0.0000
    120 H18X      -23.0290    8.4410  -11.3560 H         1 SAP1        0.0000
    121 H18Y      -23.4260    6.7560  -11.8680 H         1 SAP1        0.0000
    122 H18Z      -23.1760    8.0420  -13.1090 H         1 SAP1        0.0000
@<TRIPOS>BOND
     1  122  119 1 
     2  117  116 1 
     3  118  116 1 
     4  116  119 1 
     5  116  113 1 
     6  119  121 1 
     7  119  120 1 
     8  111  110 1 
     9  112  110 1 
    10  110  113 1 
    11  110  107 1 
    12  113  115 1 
    13  113  114 1 
    14  105  104 1 
    15  106  104 1 
    16  104  107 1 
    17  104  101 1 
    18  107  109 1 
    19  107  108 1 
    20   72   70 1 
    21   99   98 1 
    22   73   70 1 
    23  100   98 1 
    24   70   71 1 
    25   70   67 1 
    26   98  101 1 
    27   98   95 1 
    28  101  103 1 
    29  101  102 1 
    30   93   92 1 
    31   66   64 1 
    32   94   92 1 
    33   68   67 1 
    34   67   64 1 
    35   67   69 1 
    36   92   95 1 
    37   92   89 1 
    38   95   97 1 
    39   95   96 1 
    40   64   65 1 
    41   64   61 1 
    42   87   86 1 
    43   88   86 1 
    44   86   89 1 
    45   86   83 1 
    46   60   58 1 
    47   89   91 1 
    48   89   90 1 
    49   62   61 1 
    50   61   58 1 
    51   61   63 1 
    52   81   80 1 
    53   82   80 1 
    54   58   59 1 
    55   58   56 1 
    56   50   49 1 
    57   80   83 1 
    58   80   77 1 
    59   83   85 1 
    60   83   84 1 
    61   75   74 1 
    62   53   51 1 
    63   76   74 1 
    64   49   51 1 
    65   49   47 2 
    66   56   57 1 
    67   56   54 2 
    68   48   47 1 
    69   74   77 1 
    70   74   24 1 
    71   23   22 2 
    72   51   54 1 
    73   51   52 1 
    74   77   79 1 
    75   77   78 1 
    76   47   44 1 
    77   54   55 1 
    78   43   42 1 
    79   22   24 1 
    80   22   21 1 
    81   42   44 1 
    82   42   40 2 
    83   19   18 1 
    84   24   26 1 
    85   24   25 1 
    86   44   46 1 
    87   44   45 1 
    88   41   40 1 
    89   40   37 1 
    90    3    1 2 
    91   20   18 1 
    92   18   21 1 
    93   18   10 1 
    94    9    7 1 
    95   38   37 1 
    96   37   39 1 
    97   37   35 1 
    98   31   30 1 
    99    6    1 1 
   100    6    7 1 
   101    1    4 1 
   102    1    2 1 
   103    4    5 1 
   104   17   15 1 
   105    7   10 1 
   106    7    8 1 
   107   12   10 1 
   108   12   13 1 
   109   10   11 1 
   110   30   32 1 
   111   30   33 1 
   112   30   27 1 
   113   35   36 1 
   114   35   33 2 
   115   15   13 1 
   116   15   16 1 
   117   15   27 1 
   118   13   14 2 
   119   33   34 1 
   120   29   27 1 
   121   27   28 1 
