@<TRIPOS>MOLECULE
C:\Users\Praveer\PycharmProjects\pdb_to_mol2_converter\data\pdb\sapc.pdb
  140   139     0     0     0
SMALL
GASTEIGER

@<TRIPOS>ATOM
      1 N           1.4600    0.0210   -0.0330 N.4       1 SAP1        0.0000
      2 C12         1.9070    1.4690   -0.0070 C.3       1 SAP1        0.0000
      3 H12A        1.3410    2.0480    0.7080 H         1 SAP1        0.0000
      4 H12B        1.6840    1.9010   -0.9860 H         1 SAP1        0.0000
      5 C13        -0.0360   -0.0300   -0.0980 C.3       1 SAP1        0.0000
      6 H13A       -0.3780    0.5700   -0.9430 H         1 SAP1        0.0000
      7 H13B       -0.4810    0.3770    0.7990 H         1 SAP1        0.0000
      8 H13C       -0.3850   -1.0430   -0.2380 H         1 SAP1        0.0000
      9 C14         2.0100   -0.5860   -1.2910 C.3       1 SAP1        0.0000
     10 H14A        3.0740   -0.3470   -1.3990 H         1 SAP1        0.0000
     11 H14B        1.5650   -0.1140   -2.1630 H         1 SAP1        0.0000
     12 H14C        1.8690   -1.6500   -1.3450 H         1 SAP1        0.0000
     13 C15         1.9710   -0.7200    1.1620 C.3       1 SAP1        0.0000
     14 H15A        1.6200   -0.2670    2.0790 H         1 SAP1        0.0000
     15 H15B        3.0570   -0.6870    1.1700 H         1 SAP1        0.0000
     16 H15C        1.6650   -1.7560    1.1390 H         1 SAP1        0.0000
     17 C11         3.3980    1.7270    0.2310 C.3       1 SAP1        0.0000
     18 H11A        4.0240    0.8210    0.0480 H         1 SAP1        0.0000
     19 H11B        3.5660    2.0190    1.2920 H         1 SAP1        0.0000
     20 P           4.4520    2.5200   -2.0120 P.3       1 SAP1        0.0000
     21 O13         3.9440    1.2180   -2.5070 O.2       1 SAP1        0.0000
     22 O14         5.9090    2.6810   -1.8650 O.3       1 SAP1        0.0000
     23 O12         3.7510    2.8130   -0.6150 O.3       1 SAP1        0.0000
     24 O11         3.8540    3.6830   -2.9070 O.3       1 SAP1        0.0000
     25 C1          2.5740    3.5650   -3.5250 C.3       1 SAP1        0.0000
     26 HA          2.2710    2.5050   -3.6890 H         1 SAP1        0.0000
     27 HB          2.6290    4.0320   -4.5340 H         1 SAP1        0.0000
     28 C2          1.4840    4.3180   -2.7220 C.3       1 SAP1        0.0000
     29 HS          1.4560    3.9250   -1.6790 H         1 SAP1        0.0000
     30 O21         0.2260    4.1380   -3.4000 O.3       1 SAP1        0.0000
     31 C21        -0.3400    2.9590   -3.2100 C.2       1 SAP1        0.0000
     32 O22        -0.0470    2.1520   -2.3430 O.2       1 SAP1        0.0000
     33 C22        -1.3860    2.7200   -4.2990 C.3       1 SAP1        0.0000
     34 H2R        -1.1560    1.7410   -4.7680 H         1 SAP1        0.0000
     35 H2S        -1.2920    3.5090   -5.0740 H         1 SAP1        0.0000
     36 C3          1.8140    5.8340   -2.6230 C.3       1 SAP1        0.0000
     37 HX          1.8410    6.2250   -3.6690 H         1 SAP1        0.0000
     38 HY          2.8350    5.9320   -2.1850 H         1 SAP1        0.0000
     39 O31         0.8460    6.5410   -1.8090 O.3       1 SAP1        0.0000
     40 C31         0.9670    7.8660   -1.9080 C.2       1 SAP1        0.0000
     41 O32         1.7770    8.4470   -2.6040 O.2       1 SAP1        0.0000
     42 C32        -0.0680    8.5500   -1.0100 C.3       1 SAP1        0.0000
     43 H2X         0.1050    8.2110    0.0320 H         1 SAP1        0.0000
     44 H2Y        -1.0760    8.2210   -1.3330 H         1 SAP1        0.0000
     45 C23        -2.8250    2.6990   -3.7420 C.3       1 SAP1        0.0000
     46 H3R        -3.0340    3.6750   -3.2440 H         1 SAP1        0.0000
     47 H3S        -2.9180    1.8940   -2.9770 H         1 SAP1        0.0000
     48 C24        -3.8630    2.4680   -4.8550 C.3       1 SAP1        0.0000
     49 H4R        -3.6580    1.4860   -5.3380 H         1 SAP1        0.0000
     50 H4S        -3.7290    3.2520   -5.6350 H         1 SAP1        0.0000
     51 C25        -5.2680    2.5060   -4.3130 C.2       1 SAP1        0.0000
     52 H5R        -5.3530    2.6690   -3.2280 H         1 SAP1        0.0000
     53 C26        -6.3890    2.3690   -5.0420 C.2       1 SAP1        0.0000
     54 H6R        -7.3560    2.4210   -4.5170 H         1 SAP1        0.0000
     55 C27        -6.4420    2.1440   -6.5370 C.3       1 SAP1        0.0000
     56 H7R        -5.8780    1.2200   -6.7940 H         1 SAP1        0.0000
     57 H7S        -5.9230    2.9810   -7.0570 H         1 SAP1        0.0000
     58 C28        -7.8540    2.0300   -7.0640 C.2       1 SAP1        0.0000
     59 H8R        -8.6580    2.1280   -6.3180 H         1 SAP1        0.0000
     60 C29        -8.2130    1.8230   -8.3430 C.2       1 SAP1        0.0000
     61 H9R        -9.2910    1.7640   -8.5650 H         1 SAP1        0.0000
     62 C210       -7.2830    1.6610   -9.5260 C.3       1 SAP1        0.0000
     63 H10R       -6.5960    0.8040   -9.3460 H         1 SAP1        0.0000
     64 H10S       -6.6380    2.5640   -9.6200 H         1 SAP1        0.0000
     65 C211       -8.0390    1.4420  -10.8170 C.2       1 SAP1        0.0000
     66 H11R       -9.1380    1.4270  -10.7380 H         1 SAP1        0.0000
     67 C212       -7.5040    1.2650  -12.0380 C.2       1 SAP1        0.0000
     68 H12R       -8.1960    1.1170  -12.8830 H         1 SAP1        0.0000
     69 C213       -6.0320    1.2480  -12.3790 C.3       1 SAP1        0.0000
     70 H13R       -5.5230    0.4520  -11.7910 H         1 SAP1        0.0000
     71 H13S       -5.5660    2.2100  -12.0650 H         1 SAP1        0.0000
     72 C214       -5.7850    1.0250  -13.8550 C.2       1 SAP1        0.0000
     73 H14R       -6.6790    0.9040  -14.4880 H         1 SAP1        0.0000
     74 C215       -4.5810    0.9620  -14.4480 C.2       1 SAP1        0.0000
     75 H15R       -4.5290    0.7940  -15.5360 H         1 SAP1        0.0000
     76 C216       -3.2500    1.1020  -13.7560 C.3       1 SAP1        0.0000
     77 H16R       -3.1310    0.3190  -12.9740 H         1 SAP1        0.0000
     78 H16S       -3.1750    2.0910  -13.2510 H         1 SAP1        0.0000
     79 C217       -2.0860    0.9750  -14.7560 C.3       1 SAP1        0.0000
     80 H17R       -2.1780    1.7620  -15.5390 H         1 SAP1        0.0000
     81 H17S       -2.1340   -0.0170  -15.2620 H         1 SAP1        0.0000
     82 C218       -0.7140    1.1130  -14.0830 C.3       1 SAP1        0.0000
     83 H18R       -0.6130    0.3270  -13.3010 H         1 SAP1        0.0000
     84 H18S       -0.6560    2.1040  -13.5780 H         1 SAP1        0.0000
     85 C219        0.4460    0.9860  -15.0790 C.3       1 SAP1        0.0000
     86 H19R        0.3340    1.7700  -15.8630 H         1 SAP1        0.0000
     87 H19S        0.3770   -0.0040  -15.5860 H         1 SAP1        0.0000
     88 C220        1.8220    1.1210  -14.4240 C.3       1 SAP1        0.0000
     89 H20R        1.9620    0.3330  -13.6540 H         1 SAP1        0.0000
     90 H20S        1.9190    2.1130  -13.9320 H         1 SAP1        0.0000
     91 H20T        2.6280    1.0230  -15.1830 H         1 SAP1        0.0000
     92 C33         0.0390   10.0920   -1.0890 C.3       1 SAP1        0.0000
     93 H3X        -0.1250   10.4200   -2.1410 H         1 SAP1        0.0000
     94 H3Y         1.0680   10.4050   -0.7980 H         1 SAP1        0.0000
     95 C34        -0.9630   10.8320   -0.1880 C.3       1 SAP1        0.0000
     96 H4X        -0.8010   10.5290    0.8710 H         1 SAP1        0.0000
     97 H4Y        -1.9990   10.5420   -0.4710 H         1 SAP1        0.0000
     98 C35        -0.8200   12.3600   -0.3000 C.3       1 SAP1        0.0000
     99 H5X        -0.9780   12.6590   -1.3610 H         1 SAP1        0.0000
    100 H5Y         0.2190   12.6460   -0.0210 H         1 SAP1        0.0000
    101 C36        -1.8060   13.1360    0.5870 C.3       1 SAP1        0.0000
    102 H6X        -1.6470   12.8450    1.6490 H         1 SAP1        0.0000
    103 H6Y        -2.8460   12.8550    0.3090 H         1 SAP1        0.0000
    104 C37        -1.6470   14.6600    0.4550 C.3       1 SAP1        0.0000
    105 H7X        -1.8040   14.9510   -0.6080 H         1 SAP1        0.0000
    106 H7Y        -0.6060   14.9420    0.7330 H         1 SAP1        0.0000
    107 C38        -2.6290   15.4460    1.3370 C.3       1 SAP1        0.0000
    108 H8X        -2.4720   15.1590    2.4010 H         1 SAP1        0.0000
    109 H8Y        -3.6700   15.1670    1.0600 H         1 SAP1        0.0000
    110 C39        -2.4640   16.9680    1.1990 C.3       1 SAP1        0.0000
    111 H9X        -2.6200   17.2550    0.1350 H         1 SAP1        0.0000
    112 H9Y        -1.4220   17.2470    1.4760 H         1 SAP1        0.0000
    113 C310       -3.4440   17.7590    2.0790 C.3       1 SAP1        0.0000
    114 H10X       -3.2880   17.4740    3.1440 H         1 SAP1        0.0000
    115 H10Y       -4.4860   17.4820    1.8030 H         1 SAP1        0.0000
    116 C311       -3.2760   19.2800    1.9390 C.3       1 SAP1        0.0000
    117 H11X       -3.4330   19.5660    0.8750 H         1 SAP1        0.0000
    118 H11Y       -2.2350   19.5580    2.2160 H         1 SAP1        0.0000
    119 C312       -4.2550   20.0720    2.8190 C.3       1 SAP1        0.0000
    120 H12X       -4.1000   19.7890    3.8840 H         1 SAP1        0.0000
    121 H12Y       -5.2980   19.7970    2.5430 H         1 SAP1        0.0000
    122 C313       -4.0850   21.5920    2.6760 C.3       1 SAP1        0.0000
    123 H13X       -4.2400   21.8760    1.6110 H         1 SAP1        0.0000
    124 H13Y       -3.0420   21.8680    2.9510 H         1 SAP1        0.0000
    125 C314       -5.0620   22.3890    3.5540 C.3       1 SAP1        0.0000
    126 H14X       -4.9070   22.1050    4.6190 H         1 SAP1        0.0000
    127 H14Y       -6.1050   22.1130    3.2780 H         1 SAP1        0.0000
    128 C315       -4.8940   23.9100    3.4130 C.3       1 SAP1        0.0000
    129 H15X       -5.0520   24.1980    2.3490 H         1 SAP1        0.0000
    130 H15Y       -3.8530   24.1900    3.6910 H         1 SAP1        0.0000
    131 C316       -5.8760   24.6960    4.2960 C.3       1 SAP1        0.0000
    132 H16X       -5.7190   24.4070    5.3580 H         1 SAP1        0.0000
    133 H16Y       -6.9160   24.4160    4.0190 H         1 SAP1        0.0000
    134 C317       -5.7180   26.2170    4.1640 C.3       1 SAP1        0.0000
    135 H17X       -5.8690   26.4990    3.0980 H         1 SAP1        0.0000
    136 H17Y       -4.6740   26.4910    4.4350 H         1 SAP1        0.0000
    137 C318       -6.6890   27.0180    5.0370 C.3       1 SAP1        0.0000
    138 H18X       -6.5300   26.7790    6.1120 H         1 SAP1        0.0000
    139 H18Y       -7.7410   26.7880    4.7580 H         1 SAP1        0.0000
    140 H18Z       -6.5250   28.1080    4.8980 H         1 SAP1        0.0000
@<TRIPOS>BOND
     1   86   85 1 
     2   87   85 1 
     3   80   79 1 
     4   75   74 1 
     5   81   79 1 
     6   91   88 1 
     7   85   88 1 
     8   85   82 1 
     9   79   82 1 
    10   79   76 1 
    11   73   72 1 
    12   74   72 2 
    13   74   76 1 
    14   88   90 1 
    15   88   89 1 
    16   82   84 1 
    17   82   83 1 
    18   72   69 1 
    19   76   78 1 
    20   76   77 1 
    21   68   67 1 
    22   69   71 1 
    23   69   67 1 
    24   69   70 1 
    25   67   65 2 
    26   65   66 1 
    27   65   62 1 
    28   64   62 1 
    29   62   63 1 
    30   62   60 1 
    31   61   60 1 
    32   60   58 2 
    33   58   55 1 
    34   58   59 1 
    35   57   55 1 
    36   56   55 1 
    37   55   53 1 
    38   50   48 1 
    39   49   48 1 
    40   35   33 1 
    41   53   54 1 
    42   53   51 2 
    43   48   51 1 
    44   48   45 1 
    45   34   33 1 
    46   27   25 1 
    47   51   52 1 
    48   33   45 1 
    49   33   31 1 
    50   45   46 1 
    51   45   47 1 
    52   26   25 1 
    53   37   36 1 
    54   25   24 1 
    55   25   28 1 
    56   30   31 1 
    57   30   28 1 
    58   31   32 2 
    59   24   20 1 
    60   28   36 1 
    61   28   29 1 
    62   36   38 1 
    63   36   39 1 
    64   41   40 2 
    65   21   20 2 
    66   11    9 1 
    67   93   92 1 
    68   20   22 1 
    69   20   23 1 
    70   40   39 1 
    71   40   42 1 
    72   10    9 1 
    73   99   98 1 
    74   12    9 1 
    75   44   42 1 
    76    9    1 1 
    77   92   42 1 
    78   92   94 1 
    79   92   95 1 
    80   42   43 1 
    81    4    2 1 
    82    6    5 1 
    83   23   17 1 
    84  105  104 1 
    85   97   95 1 
    86   98   95 1 
    87   98  100 1 
    88   98  101 1 
    89    8    5 1 
    90   95   96 1 
    91    5    1 1 
    92    5    7 1 
    93    1    2 1 
    94    1   13 1 
    95    2   17 1 
    96    2    3 1 
    97   18   17 1 
    98  111  110 1 
    99   17   19 1 
   100  103  101 1 
   101  104  101 1 
   102  104  106 1 
   103  104  107 1 
   104  101  102 1 
   105  117  116 1 
   106  109  107 1 
   107   16   13 1 
   108   13   15 1 
   109   13   14 1 
   110  110  107 1 
   111  110  112 1 
   112  110  113 1 
   113  107  108 1 
   114  123  122 1 
   115  115  113 1 
   116  116  113 1 
   117  116  118 1 
   118  116  119 1 
   119  113  114 1 
   120  129  128 1 
   121  121  119 1 
   122  122  119 1 
   123  122  124 1 
   124  122  125 1 
   125  119  120 1 
   126  135  134 1 
   127  127  125 1 
   128  128  125 1 
   129  128  130 1 
   130  128  131 1 
   131  125  126 1 
   132  133  131 1 
   133  134  131 1 
   134  134  136 1 
   135  134  137 1 
   136  131  132 1 
   137  139  137 1 
   138  140  137 1 
   139  137  138 1 
