@<TRIPOS>MOLECULE
C:\Users\Praveer\PycharmProjects\pdb_to_mol2_converter\data\pdb\sape.pdb
  131   130     0     0     0
SMALL
GASTEIGER

@<TRIPOS>ATOM
      1 N           1.1160    0.4490   -0.7970 N.4       1 SAP1        0.0000
      2 HN1         0.1160    0.3470   -0.5690 H         1 SAP1        0.0000
      3 HN2         1.5860   -0.4690   -0.9460 H         1 SAP1        0.0000
      4 HN3         1.1680    0.9550   -1.7390 H         1 SAP1        0.0000
      5 C12         1.8760    1.3590    0.1480 C.3       1 SAP1        0.0000
      6 H12A        1.8080    0.9170    1.1620 H         1 SAP1        0.0000
      7 H12B        1.3670    2.3470    0.1440 H         1 SAP1        0.0000
      8 C11         3.3560    1.5690   -0.2670 C.3       1 SAP1        0.0000
      9 H11A        3.8870    0.5950   -0.3770 H         1 SAP1        0.0000
     10 H11B        3.8710    2.1060    0.5670 H         1 SAP1        0.0000
     11 P           3.0710    1.8360   -2.8630 P.3       1 SAP1        0.0000
     12 O13         3.6040    0.4660   -2.9970 O.2       1 SAP1        0.0000
     13 O14         1.5890    1.9150   -2.8910 O.3       1 SAP1        0.0000
     14 O12         3.4950    2.3770   -1.4390 O.3       1 SAP1        0.0000
     15 O11         3.7040    2.8300   -3.9040 O.3       1 SAP1        0.0000
     16 C1          3.3630    2.6590   -5.2830 C.3       1 SAP1        0.0000
     17 HA          2.2570    2.6370   -5.4270 H         1 SAP1        0.0000
     18 HB          3.7870    1.7040   -5.6720 H         1 SAP1        0.0000
     19 C2          3.9520    3.8230   -6.1230 C.3       1 SAP1        0.0000
     20 HS          3.4930    4.7780   -5.7740 H         1 SAP1        0.0000
     21 O21         3.6900    3.5790   -7.5180 O.3       1 SAP1        0.0000
     22 C21         2.4510    3.8470   -7.8990 C.2       1 SAP1        0.0000
     23 O22         1.5890    4.3890   -7.2100 O.2       1 SAP1        0.0000
     24 C22         2.2170    3.3390   -9.3160 C.3       1 SAP1        0.0000
     25 H2R         1.2670    2.7650   -9.2970 H         1 SAP1        0.0000
     26 H2S         3.0380    2.6500   -9.6010 H         1 SAP1        0.0000
     27 C3          5.4870    3.9550   -5.8970 C.3       1 SAP1        0.0000
     28 HX          5.9540    3.0240   -6.2950 H         1 SAP1        0.0000
     29 HY          5.6690    3.9930   -4.7990 H         1 SAP1        0.0000
     30 O31         6.0230    5.1450   -6.5320 O.3       1 SAP1        0.0000
     31 C31         7.3580    5.1700   -6.5570 C.2       1 SAP1        0.0000
     32 O32         8.0830    4.2980   -6.1300 O.2       1 SAP1        0.0000
     33 C32         7.8390    6.4820   -7.2000 C.3       1 SAP1        0.0000
     34 H2X         7.4530    7.3170   -6.5800 H         1 SAP1        0.0000
     35 H2Y         7.3930    6.5500   -8.2130 H         1 SAP1        0.0000
     36 C23         2.0940    4.4900  -10.3400 C.3       1 SAP1        0.0000
     37 H3R         1.3270    5.2230   -9.9980 H         1 SAP1        0.0000
     38 H3S         1.7370    4.0550  -11.3030 H         1 SAP1        0.0000
     39 C24         3.4400    5.1970  -10.5850 C.3       1 SAP1        0.0000
     40 H4R         4.1870    4.4290  -10.8910 H         1 SAP1        0.0000
     41 H4S         3.7950    5.6270   -9.6210 H         1 SAP1        0.0000
     42 C25         3.3510    6.2750  -11.6360 C.2       1 SAP1        0.0000
     43 H5R         2.3700    6.3870  -12.1240 H         1 SAP1        0.0000
     44 C26         4.3660    7.0810  -12.0030 C.2       1 SAP1        0.0000
     45 H6R         4.1890    7.8410  -12.7810 H         1 SAP1        0.0000
     46 C27         5.7640    7.0700  -11.4280 C.3       1 SAP1        0.0000
     47 H7R         5.8310    6.3790  -10.5590 H         1 SAP1        0.0000
     48 H7S         5.9780    8.0800  -11.0200 H         1 SAP1        0.0000
     49 C28         6.7950    6.6440  -12.4460 C.2       1 SAP1        0.0000
     50 H8R         6.5750    5.6850  -12.9420 H         1 SAP1        0.0000
     51 C29         7.9300    7.2910  -12.7890 C.2       1 SAP1        0.0000
     52 H9R         8.5760    6.8310  -13.5540 H         1 SAP1        0.0000
     53 C210        8.4460    8.6020  -12.2450 C.3       1 SAP1        0.0000
     54 H10R        7.8380    8.9640  -11.3900 H         1 SAP1        0.0000
     55 H10S        8.3340    9.3790  -13.0320 H         1 SAP1        0.0000
     56 C211        9.8840    8.4630  -11.7870 C.2       1 SAP1        0.0000
     57 H11R       10.0370    7.7010  -11.0040 H         1 SAP1        0.0000
     58 C212       10.9570    9.1470  -12.2180 C.2       1 SAP1        0.0000
     59 H12R       11.9450    8.9210  -11.7810 H         1 SAP1        0.0000
     60 C213       10.9980   10.2210  -13.2770 C.3       1 SAP1        0.0000
     61 H13R       10.0080   10.3810  -13.7500 H         1 SAP1        0.0000
     62 H13S       11.6660    9.8650  -14.0910 H         1 SAP1        0.0000
     63 C214       11.4640   11.5310  -12.6960 C.2       1 SAP1        0.0000
     64 H14R       10.7550   12.0070  -11.9990 H         1 SAP1        0.0000
     65 C215       12.6310   12.1430  -12.9640 C.2       1 SAP1        0.0000
     66 H15R       12.8590   13.1050  -12.4780 H         1 SAP1        0.0000
     67 C216       13.6860   11.6130  -13.9020 C.3       1 SAP1        0.0000
     68 H16R       13.2380   11.3370  -14.8840 H         1 SAP1        0.0000
     69 H16S       14.1410   10.6890  -13.4800 H         1 SAP1        0.0000
     70 C217       14.8050   12.6360  -14.1560 C.3       1 SAP1        0.0000
     71 H17R       15.2880   12.9090  -13.1900 H         1 SAP1        0.0000
     72 H17S       14.3720   13.5620  -14.5990 H         1 SAP1        0.0000
     73 C218       15.8830   12.0980  -15.1080 C.3       1 SAP1        0.0000
     74 H18R       15.4140   11.8350  -16.0820 H         1 SAP1        0.0000
     75 H18S       16.3140   11.1650  -14.6780 H         1 SAP1        0.0000
     76 C219       17.0130   13.1050  -15.3520 C.3       1 SAP1        0.0000
     77 H19R       17.4750   13.3710  -14.3740 H         1 SAP1        0.0000
     78 H19S       16.5780   14.0370  -15.7800 H         1 SAP1        0.0000
     79 C220       18.0980   12.5780  -16.2950 C.3       1 SAP1        0.0000
     80 H20R       17.6630   12.3280  -17.2860 H         1 SAP1        0.0000
     81 H20S       18.5630   11.6600  -15.8760 H         1 SAP1        0.0000
     82 H20T       18.8930   13.3400  -16.4420 H         1 SAP1        0.0000
     83 C33         9.3870    6.5610   -7.2790 C.3       1 SAP1        0.0000
     84 H3X         9.7530    5.7320   -7.9300 H         1 SAP1        0.0000
     85 H3Y         9.8180    6.4080   -6.2620 H         1 SAP1        0.0000
     86 C34         9.9400    7.8950   -7.8200 C.3       1 SAP1        0.0000
     87 H4X         9.6420    8.7320   -7.1490 H         1 SAP1        0.0000
     88 H4Y         9.4790    8.0920   -8.8120 H         1 SAP1        0.0000
     89 C35        11.4810    7.8810   -7.9470 C.3       1 SAP1        0.0000
     90 H5X        11.7750    7.0430   -8.6200 H         1 SAP1        0.0000
     91 H5Y        11.9270    7.6770   -6.9460 H         1 SAP1        0.0000
     92 C36        12.0880    9.1900   -8.4940 C.3       1 SAP1        0.0000
     93 H6X        11.8260   10.0340   -7.8160 H         1 SAP1        0.0000
     94 H6Y        11.6280    9.4060   -9.4810 H         1 SAP1        0.0000
     95 C37        13.6220    9.1310   -8.6570 C.3       1 SAP1        0.0000
     96 H7X        13.8910    8.2540   -9.2890 H         1 SAP1        0.0000
     97 H7Y        14.0790    8.9750   -7.6530 H         1 SAP1        0.0000
     98 C38        14.2290   10.3970   -9.2980 C.3       1 SAP1        0.0000
     99 H8X        13.9340   11.2840   -8.6930 H         1 SAP1        0.0000
    100 H8Y        13.8090   10.5290  -10.3200 H         1 SAP1        0.0000
    101 C39        15.7670   10.3440   -9.3970 C.3       1 SAP1        0.0000
    102 H9X        16.0650    9.4390   -9.9720 H         1 SAP1        0.0000
    103 H9Y        16.1830   10.2440   -8.3690 H         1 SAP1        0.0000
    104 C310       16.3910   11.5830  -10.0680 C.3       1 SAP1        0.0000
    105 H10X       16.0640   12.4940   -9.5180 H         1 SAP1        0.0000
    106 H10Y       16.0130   11.6620  -11.1120 H         1 SAP1        0.0000
    107 C311       17.9310   11.5490  -10.0910 C.3       1 SAP1        0.0000
    108 H11X       18.2670   10.6440  -10.6450 H         1 SAP1        0.0000
    109 H11Y       18.3070   11.4640   -9.0470 H         1 SAP1        0.0000
    110 C312       18.5560   12.7940  -10.7420 C.3       1 SAP1        0.0000
    111 H12X       18.2130   13.7010  -10.1960 H         1 SAP1        0.0000
    112 H12Y       18.1950   12.8760  -11.7920 H         1 SAP1        0.0000
    113 C313       20.0950   12.7710  -10.7440 C.3       1 SAP1        0.0000
    114 H13X       20.4440   11.8700  -11.2960 H         1 SAP1        0.0000
    115 H13Y       20.4580   12.6860   -9.6960 H         1 SAP1        0.0000
    116 C314       20.7130   14.0240  -11.3870 C.3       1 SAP1        0.0000
    117 H14X       20.3670   14.9250  -10.8320 H         1 SAP1        0.0000
    118 H14Y       20.3490   14.1110  -12.4350 H         1 SAP1        0.0000
    119 C315       22.2510   14.0060  -11.3940 C.3       1 SAP1        0.0000
    120 H15X       22.6030   13.1070  -11.9500 H         1 SAP1        0.0000
    121 H15Y       22.6210   13.9240  -10.3470 H         1 SAP1        0.0000
    122 C316       22.8610   15.2620  -12.0410 C.3       1 SAP1        0.0000
    123 H16X       22.5140   16.1610  -11.4830 H         1 SAP1        0.0000
    124 H16Y       22.4890   15.3470  -13.0870 H         1 SAP1        0.0000
    125 C317       24.3990   15.2340  -12.0510 C.3       1 SAP1        0.0000
    126 H17X       24.7310   14.3250  -12.6040 H         1 SAP1        0.0000
    127 H17Y       24.7570   15.1430  -10.9990 H         1 SAP1        0.0000
    128 C318       25.0570   16.4640  -12.6880 C.3       1 SAP1        0.0000
    129 H18X       24.7720   17.3880  -12.1390 H         1 SAP1        0.0000
    130 H18Y       24.7450   16.5670  -13.7500 H         1 SAP1        0.0000
    131 H18Z       26.1650   16.3670  -12.6570 H         1 SAP1        0.0000
@<TRIPOS>BOND
     1   80   79 1 
     2   82   79 1 
     3   79   81 1 
     4   79   76 1 
     5   74   73 1 
     6   78   76 1 
     7   76   73 1 
     8   76   77 1 
     9   73   75 1 
    10   73   70 1 
    11   68   67 1 
    12   72   70 1 
    13   70   67 1 
    14   70   71 1 
    15   62   60 1 
    16   67   69 1 
    17   67   65 1 
    18   61   60 1 
    19  130  128 1 
    20   52   51 1 
    21   60   63 1 
    22   60   58 1 
    23  124  122 1 
    24   55   53 1 
    25   65   63 2 
    26   65   66 1 
    27   50   49 1 
    28   51   49 2 
    29   51   53 1 
    30   45   44 1 
    31   63   64 1 
    32  128  131 1 
    33  128  129 1 
    34  128  125 1 
    35  126  125 1 
    36   49   46 1 
    37  118  116 1 
    38   53   56 1 
    39   53   54 1 
    40   58   56 2 
    41   58   59 1 
    42   43   42 1 
    43  125  122 1 
    44  125  127 1 
    45  122  123 1 
    46  122  119 1 
    47   44   42 2 
    48   44   46 1 
    49  120  119 1 
    50  112  110 1 
    51   56   57 1 
    52   42   39 1 
    53   46   48 1 
    54   46   47 1 
    55  119  116 1 
    56  119  121 1 
    57  116  117 1 
    58  116  113 1 
    59   38   36 1 
    60  114  113 1 
    61  106  104 1 
    62   40   39 1 
    63  113  110 1 
    64  113  115 1 
    65  110  111 1 
    66  110  107 1 
    67  108  107 1 
    68   39   36 1 
    69   39   41 1 
    70   36   37 1 
    71   36   24 1 
    72  100   98 1 
    73  107  104 1 
    74  107  109 1 
    75  104  105 1 
    76  104  101 1 
    77  102  101 1 
    78   26   24 1 
    79   94   92 1 
    80  101   98 1 
    81  101  103 1 
    82   24   25 1 
    83   24   22 1 
    84   98   99 1 
    85   98   95 1 
    86   96   95 1 
    87   88   86 1 
    88   95   92 1 
    89   95   97 1 
    90   90   89 1 
    91   92   89 1 
    92   92   93 1 
    93   35   33 1 
    94   89   86 1 
    95   89   91 1 
    96   84   83 1 
    97   22   21 1 
    98   22   23 2 
    99   86   83 1 
   100   86   87 1 
   101   21   19 1 
   102   83   33 1 
   103   83   85 1 
   104   33   34 1 
   105   33   31 1 
   106   31   30 1 
   107   31   32 2 
   108   30   27 1 
   109   28   27 1 
   110   19   27 1 
   111   19   20 1 
   112   19   16 1 
   113   27   29 1 
   114   18   16 1 
   115   17   16 1 
   116   16   15 1 
   117   15   11 1 
   118   12   11 2 
   119   13   11 1 
   120   11   14 1 
   121    4    1 1 
   122   14    8 1 
   123    3    1 1 
   124    1    2 1 
   125    1    5 1 
   126    9    8 1 
   127    8    5 1 
   128    8   10 1 
   129    7    5 1 
   130    5    6 1 
