@<TRIPOS>MOLECULE
C:\Users\Praveer\PycharmProjects\pdb_to_mol2_converter\data\pdb\sapg.pdb
  133   132     0     0     0
SMALL
GASTEIGER

@<TRIPOS>ATOM
      1 C13         0.0530    0.0910   -0.0400 C.3       1 SAP1        0.0000
      2 H13A       -0.2940    0.3360   -1.0690 H         1 SAP1        0.0000
      3 H13B       -0.3470   -0.9080    0.2380 H         1 SAP1        0.0000
      4 OC3        -0.4370    1.0900    0.8530 O.3       1 SAP1        0.0000
      5 HO3        -0.0320    1.9040    0.5130 H         1 SAP1        0.0000
      6 C12         1.6010    0.0580   -0.0250 C.3       1 SAP1        0.0000
      7 H12A        1.9310   -0.4290    0.9190 H         1 SAP1        0.0000
      8 OC2         2.0780   -0.7310   -1.1100 O.3       1 SAP1        0.0000
      9 HO2         2.0140   -0.1390   -1.8950 H         1 SAP1        0.0000
     10 C11         2.2320    1.4800   -0.0760 C.3       1 SAP1        0.0000
     11 H11A        3.3150    1.4090   -0.3350 H         1 SAP1        0.0000
     12 H11B        2.1880    1.8930    0.9570 H         1 SAP1        0.0000
     13 P           1.8850    2.4690   -2.4720 P.3       1 SAP1        0.0000
     14 O13         1.0300    3.4880   -3.1120 O.2       1 SAP1        0.0000
     15 O14         1.8850    1.0980   -3.0290 O.3       1 SAP1        0.0000
     16 O12         1.5030    2.3670   -0.9340 O.3       1 SAP1        0.0000
     17 O11         3.3800    3.0070   -2.3990 O.3       1 SAP1        0.0000
     18 C1          3.5780    4.3200   -1.8650 C.3       1 SAP1        0.0000
     19 HA          3.0650    4.4380   -0.8810 H         1 SAP1        0.0000
     20 HB          3.1680    5.0830   -2.5680 H         1 SAP1        0.0000
     21 C2          5.0900    4.6140   -1.6750 C.3       1 SAP1        0.0000
     22 HS          5.4950    3.9110   -0.9080 H         1 SAP1        0.0000
     23 O21         5.2510    5.9910   -1.2810 O.3       1 SAP1        0.0000
     24 C21         4.9290    6.2360   -0.0190 C.2       1 SAP1        0.0000
     25 O22         4.6790    5.4050    0.8320 O.2       1 SAP1        0.0000
     26 C22         4.8890    7.7460    0.2150 C.3       1 SAP1        0.0000
     27 H2R         3.9470    7.9590    0.7620 H         1 SAP1        0.0000
     28 H2S         4.8600    8.2740   -0.7590 H         1 SAP1        0.0000
     29 C3          5.8870    4.3620   -2.9870 C.3       1 SAP1        0.0000
     30 HX          5.5310    5.1140   -3.7310 H         1 SAP1        0.0000
     31 HY          5.6190    3.3470   -3.3610 H         1 SAP1        0.0000
     32 O31         7.3190    4.4500   -2.7680 O.3       1 SAP1        0.0000
     33 C31         8.0220    4.4450   -3.9010 C.2       1 SAP1        0.0000
     34 O32         7.5500    4.4220   -5.0210 O.2       1 SAP1        0.0000
     35 C32         9.5220    4.4530   -3.5840 C.3       1 SAP1        0.0000
     36 H2X         9.7450    3.5490   -2.9810 H         1 SAP1        0.0000
     37 H2Y         9.7470    5.3530   -2.9770 H         1 SAP1        0.0000
     38 C23         6.0920    8.2210    1.0590 C.3       1 SAP1        0.0000
     39 H3R         6.1490    7.6290    2.0020 H         1 SAP1        0.0000
     40 H3S         5.9190    9.2860    1.3390 H         1 SAP1        0.0000
     41 C24         7.4160    8.1180    0.2820 C.3       1 SAP1        0.0000
     42 H4R         7.3150    8.6990   -0.6630 H         1 SAP1        0.0000
     43 H4S         7.5800    7.0540   -0.0070 H         1 SAP1        0.0000
     44 C25         8.5880    8.6230    1.0800 C.2       1 SAP1        0.0000
     45 H5R         8.3480    9.0490    2.0670 H         1 SAP1        0.0000
     46 C26         9.8690    8.5820    0.6710 C.2       1 SAP1        0.0000
     47 H6R        10.6540    8.9780    1.3350 H         1 SAP1        0.0000
     48 C27        10.3630    8.0310   -0.6460 C.3       1 SAP1        0.0000
     49 H7R         9.5450    7.5260   -1.2070 H         1 SAP1        0.0000
     50 H7S        11.1110    7.2370   -0.4370 H         1 SAP1        0.0000
     51 C28        10.9320    9.1320   -1.5090 C.2       1 SAP1        0.0000
     52 H8R        10.2540    9.9890   -1.6610 H         1 SAP1        0.0000
     53 C29        12.1460    9.1680   -2.0960 C.2       1 SAP1        0.0000
     54 H9R        12.4100   10.0580   -2.6900 H         1 SAP1        0.0000
     55 C210       13.2260    8.1140   -2.0340 C.3       1 SAP1        0.0000
     56 H10R       12.8730    7.1900   -1.5300 H         1 SAP1        0.0000
     57 H10S       14.0620    8.4920   -1.4080 H         1 SAP1        0.0000
     58 C211       13.6870    7.7470   -3.4240 C.2       1 SAP1        0.0000
     59 H11R       12.8910    7.3460   -4.0720 H         1 SAP1        0.0000
     60 C212       14.9330    7.8420   -3.9320 C.2       1 SAP1        0.0000
     61 H12R       15.0930    7.5120   -4.9720 H         1 SAP1        0.0000
     62 C213       16.1790    8.3450   -3.2420 C.3       1 SAP1        0.0000
     63 H13R       15.9650    8.7220   -2.2190 H         1 SAP1        0.0000
     64 H13S       16.5680    9.2290   -3.7950 H         1 SAP1        0.0000
     65 C214       17.2180    7.2530   -3.1500 C.2       1 SAP1        0.0000
     66 H14R       16.9620    6.4240   -2.4710 H         1 SAP1        0.0000
     67 C215       18.3910    7.2180   -3.8090 C.2       1 SAP1        0.0000
     68 H15R       19.0680    6.3620   -3.6630 H         1 SAP1        0.0000
     69 C216       18.8790    8.2780   -4.7630 C.3       1 SAP1        0.0000
     70 H16R       18.7980    9.2890   -4.3020 H         1 SAP1        0.0000
     71 H16S       18.2480    8.2830   -5.6800 H         1 SAP1        0.0000
     72 C217       20.3430    8.0590   -5.1820 C.3       1 SAP1        0.0000
     73 H17R       20.4480    7.0630   -5.6680 H         1 SAP1        0.0000
     74 H17S       20.9980    8.0730   -4.2810 H         1 SAP1        0.0000
     75 C218       20.8320    9.1360   -6.1610 C.3       1 SAP1        0.0000
     76 H18R       20.7410   10.1350   -5.6800 H         1 SAP1        0.0000
     77 H18S       20.1740    9.1340   -7.0600 H         1 SAP1        0.0000
     78 C219       22.2840    8.9230   -6.6050 C.3       1 SAP1        0.0000
     79 H19R       22.3710    7.9190   -7.0800 H         1 SAP1        0.0000
     80 H19S       22.9380    8.9230   -5.7030 H         1 SAP1        0.0000
     81 C220       22.7760    9.9890   -7.5860 C.3       1 SAP1        0.0000
     82 H20R       22.7190   10.9980   -7.1230 H         1 SAP1        0.0000
     83 H20S       22.1500    9.9900   -8.5040 H         1 SAP1        0.0000
     84 H20T       23.8300    9.7960   -7.8790 H         1 SAP1        0.0000
     85 C33        10.3810    4.4590   -4.8730 C.3       1 SAP1        0.0000
     86 H3X        10.1730    5.3930   -5.4450 H         1 SAP1        0.0000
     87 H3Y        10.0880    3.6010   -5.5210 H         1 SAP1        0.0000
     88 C34        11.8930    4.3620   -4.6090 C.3       1 SAP1        0.0000
     89 H4X        12.1140    3.3940   -4.1070 H         1 SAP1        0.0000
     90 H4Y        12.2040    5.1750   -3.9180 H         1 SAP1        0.0000
     91 C35        12.7150    4.4760   -5.9040 C.3       1 SAP1        0.0000
     92 H5X        12.4680    5.4450   -6.3960 H         1 SAP1        0.0000
     93 H5Y        12.4130    3.6560   -6.5950 H         1 SAP1        0.0000
     94 C36        14.2350    4.4040   -5.6820 C.3       1 SAP1        0.0000
     95 H6X        14.4940    3.4270   -5.2180 H         1 SAP1        0.0000
     96 H6Y        14.5420    5.1990   -4.9700 H         1 SAP1        0.0000
     97 C37        15.0320    4.5710   -6.9870 C.3       1 SAP1        0.0000
     98 H7X        14.7150    5.5130   -7.4890 H         1 SAP1        0.0000
     99 H7Y        14.7830    3.7250   -7.6660 H         1 SAP1        0.0000
    100 C38        16.5550    4.6150   -6.7730 C.3       1 SAP1        0.0000
    101 H8X        16.8740    3.6990   -6.2270 H         1 SAP1        0.0000
    102 H8Y        16.8060    5.4930   -6.1370 H         1 SAP1        0.0000
    103 C39        17.3390    4.7070   -8.0940 C.3       1 SAP1        0.0000
    104 H9X        17.0010    5.6040   -8.6570 H         1 SAP1        0.0000
    105 H9Y        17.1030    3.8120   -8.7130 H         1 SAP1        0.0000
    106 C310       18.8620    4.7860   -7.8950 C.3       1 SAP1        0.0000
    107 H10X       19.1940    3.9090   -7.2950 H         1 SAP1        0.0000
    108 H10Y       19.1060    5.7060   -7.3170 H         1 SAP1        0.0000
    109 C311       19.6380    4.8010   -9.2220 C.3       1 SAP1        0.0000
    110 H11X       19.3160    5.6800   -9.8240 H         1 SAP1        0.0000
    111 H11Y       19.3840    3.8840   -9.8010 H         1 SAP1        0.0000
    112 C312       21.1620    4.8580   -9.0280 C.3       1 SAP1        0.0000
    113 H12X       21.4840    3.9830   -8.4190 H         1 SAP1        0.0000
    114 H12Y       21.4230    5.7790   -8.4620 H         1 SAP1        0.0000
    115 C313       21.9330    4.8500  -10.3580 C.3       1 SAP1        0.0000
    116 H13X       21.6180    5.7260  -10.9670 H         1 SAP1        0.0000
    117 H13Y       21.6690    3.9300  -10.9270 H         1 SAP1        0.0000
    118 C314       23.4570    4.8960  -10.1660 C.3       1 SAP1        0.0000
    119 H14X       23.7760    4.0170   -9.5620 H         1 SAP1        0.0000
    120 H14Y       23.7250    5.8140   -9.5970 H         1 SAP1        0.0000
    121 C315       24.2230    4.8910  -11.4970 C.3       1 SAP1        0.0000
    122 H15X       23.9050    5.7690  -12.1030 H         1 SAP1        0.0000
    123 H15Y       23.9580    3.9730  -12.0680 H         1 SAP1        0.0000
    124 C316       25.7450    4.9400  -11.3010 C.3       1 SAP1        0.0000
    125 H16X       26.0630    4.0610  -10.6970 H         1 SAP1        0.0000
    126 H16Y       26.0090    5.8560  -10.7270 H         1 SAP1        0.0000
    127 C317       26.5200    4.9430  -12.6260 C.3       1 SAP1        0.0000
    128 H17X       26.1930    5.8210  -13.2280 H         1 SAP1        0.0000
    129 H17Y       26.2500    4.0260  -13.1980 H         1 SAP1        0.0000
    130 C318       28.0400    4.9940  -12.4420 C.3       1 SAP1        0.0000
    131 H18X       28.3930    4.1130  -11.8640 H         1 SAP1        0.0000
    132 H18Y       28.3350    5.9140  -11.8930 H         1 SAP1        0.0000
    133 H18Z       28.5530    4.9950  -13.4280 H         1 SAP1        0.0000
@<TRIPOS>BOND
     1  133  130 1 
     2  128  127 1 
     3  129  127 1 
     4  127  130 1 
     5  127  124 1 
     6  130  132 1 
     7  130  131 1 
     8  122  121 1 
     9  123  121 1 
    10  121  124 1 
    11  121  118 1 
    12  124  126 1 
    13  124  125 1 
    14  116  115 1 
    15  117  115 1 
    16  115  118 1 
    17  115  112 1 
    18  118  120 1 
    19  118  119 1 
    20  110  109 1 
    21  111  109 1 
    22  109  112 1 
    23  109  106 1 
    24  112  114 1 
    25  112  113 1 
    26  105  103 1 
    27  104  103 1 
    28   83   81 1 
    29  103  106 1 
    30  103  100 1 
    31  106  108 1 
    32  106  107 1 
    33   84   81 1 
    34   99   97 1 
    35   81   82 1 
    36   81   78 1 
    37   98   97 1 
    38   79   78 1 
    39   77   75 1 
    40   97  100 1 
    41   97   94 1 
    42  100  101 1 
    43  100  102 1 
    44   78   75 1 
    45   78   80 1 
    46   93   91 1 
    47   92   91 1 
    48   75   76 1 
    49   75   72 1 
    50   91   94 1 
    51   91   88 1 
    52   94   95 1 
    53   94   96 1 
    54   71   69 1 
    55   73   72 1 
    56   87   85 1 
    57   86   85 1 
    58   72   69 1 
    59   72   74 1 
    60   34   33 2 
    61   61   60 1 
    62   85   88 1 
    63   85   35 1 
    64   69   70 1 
    65   69   67 1 
    66   88   89 1 
    67   88   90 1 
    68   59   58 1 
    69   60   58 2 
    70   60   62 1 
    71   33   35 1 
    72   33   32 1 
    73   67   68 1 
    74   67   65 2 
    75   64   62 1 
    76   30   29 1 
    77   35   36 1 
    78   35   37 1 
    79   58   55 1 
    80   31   29 1 
    81   62   65 1 
    82   62   63 1 
    83   65   66 1 
    84   14   13 2 
    85   15   13 1 
    86   29   32 1 
    87   29   21 1 
    88   54   53 1 
    89   20   18 1 
    90   13   17 1 
    91   13   16 1 
    92   17   18 1 
    93   53   55 1 
    94   53   51 2 
    95   55   56 1 
    96   55   57 1 
    97    9    8 1 
    98   18   21 1 
    99   18   19 1 
   100   21   23 1 
   101   21   22 1 
   102   52   51 1 
   103   51   48 1 
   104   23   24 1 
   105   49   48 1 
   106    8    6 1 
   107    2    1 1 
   108   16   10 1 
   109   28   26 1 
   110   42   41 1 
   111   48   50 1 
   112   48   46 1 
   113   11   10 1 
   114   10    6 1 
   115   10   12 1 
   116    1    6 1 
   117    1    3 1 
   118    1    4 1 
   119    6    7 1 
   120   24   26 1 
   121   24   25 2 
   122   43   41 1 
   123   26   27 1 
   124   26   38 1 
   125   41   38 1 
   126   41   44 1 
   127    5    4 1 
   128   46   44 2 
   129   46   47 1 
   130   38   40 1 
   131   38   39 1 
   132   44   45 1 
