@<TRIPOS>MOLECULE
C:\Users\Praveer\PycharmProjects\pdb_to_mol2_converter\data\pdb\sapi35.pdb
  153   153     0     0     0
SMALL
GASTEIGER

@<TRIPOS>ATOM
      1 C12         1.7110    0.1230   -0.0920 C.3       1 SAP1        0.0000
      2 H2          2.0880   -0.3250   -1.0440 H         1 SAP1        0.0000
      3 O2          2.2480   -0.6440    0.9810 O.3       1 SAP1        0.0000
      4 HO2         3.2010   -0.6500    0.7200 H         1 SAP1        0.0000
      5 C13         2.2380    1.5600    0.0300 C.3       1 SAP1        0.0000
      6 H3          1.9260    2.0360   -0.9320 H         1 SAP1        0.0000
      7 O3          3.6800    1.6530    0.0610 O.3       1 SAP1        0.0000
      8 P3          4.7260    0.7170   -0.8350 P.3       1 SAP1        0.0000
      9 OP32        4.2090    0.7120   -2.2720 O.2       1 SAP1        0.0000
     10 OP33        4.6740   -0.6650   -0.1820 O.3       1 SAP1        0.0000
     11 OP34        6.1200    1.3370   -0.7310 O.3       1 SAP1        0.0000
     12 C14         1.5260    2.4340    1.1180 C.3       1 SAP1        0.0000
     13 H4          1.9490    2.0840    2.0900 H         1 SAP1        0.0000
     14 O4          1.8360    3.8250    0.9160 O.3       1 SAP1        0.0000
     15 P4          2.2480    4.9470    2.0890 P.3       1 SAP1        0.0000
     16 OP42        3.1610    5.9630    1.4020 O.2       1 SAP1        0.0000
     17 OP43        0.9520    5.6280    2.5280 O.3       1 SAP1        0.0000
     18 OP44        2.9430    4.2420    3.2530 O.3       1 SAP1        0.0000
     19 C15        -0.0130    2.1990    1.1850 C.3       1 SAP1        0.0000
     20 H5         -0.3840    2.7670    0.2900 H         1 SAP1        0.0000
     21 O5         -0.5870    2.7010    2.4110 O.3       1 SAP1        0.0000
     22 P5         -1.9260    3.6600    2.3760 P.3       1 SAP1        0.0000
     23 OP52       -1.4610    5.0580    1.7890 O.3       1 SAP1        0.0000
     24 HP52       -0.5330    5.2440    2.0900 H         1 SAP1        0.0000
     25 OP53       -2.4660    3.8570    3.7900 O.3       1 SAP1        0.0000
     26 OP54       -2.9260    3.0500    1.3950 O.2       1 SAP1        0.0000
     27 C16        -0.4910    0.7480    0.9610 C.3       1 SAP1        0.0000
     28 H6         -0.2400    0.1940    1.8990 H         1 SAP1        0.0000
     29 O6         -1.9110    0.6950    0.7760 O.3       1 SAP1        0.0000
     30 HO6        -2.2530    1.5870    1.0000 H         1 SAP1        0.0000
     31 C11         0.1970    0.0150   -0.1720 C.3       1 SAP1        0.0000
     32 H1         -0.0990    0.5660   -1.1030 H         1 SAP1        0.0000
     33 P          -0.6850   -2.1280   -1.6150 P.3       1 SAP1        0.0000
     34 O13         0.4480   -2.6260   -2.4230 O.2       1 SAP1        0.0000
     35 O14        -1.7330   -1.3660   -2.3390 O.3       1 SAP1        0.0000
     36 O12        -0.2100   -1.3690   -0.2410 O.3       1 SAP1        0.0000
     37 O11        -1.3860   -3.4240   -1.0020 O.3       1 SAP1        0.0000
     38 C1         -2.7720   -3.4270   -0.6750 C.3       1 SAP1        0.0000
     39 HA         -3.1150   -2.4450   -0.2690 H         1 SAP1        0.0000
     40 HB         -2.9350   -4.1840    0.1230 H         1 SAP1        0.0000
     41 C2         -3.6320   -3.8240   -1.9020 C.3       1 SAP1        0.0000
     42 HS         -3.6060   -2.9630   -2.6140 H         1 SAP1        0.0000
     43 O21        -4.9570   -4.0770   -1.3970 O.3       1 SAP1        0.0000
     44 C21        -5.9570   -3.7910   -2.2060 C.2       1 SAP1        0.0000
     45 O22        -5.8890   -3.5620   -3.4000 O.2       1 SAP1        0.0000
     46 C22        -7.2430   -3.6740   -1.3810 C.3       1 SAP1        0.0000
     47 H2R        -7.6790   -2.6850   -1.6380 H         1 SAP1        0.0000
     48 H2S        -6.9920   -3.6700   -0.3010 H         1 SAP1        0.0000
     49 C3         -3.0230   -5.0660   -2.6270 C.3       1 SAP1        0.0000
     50 HX         -3.2030   -5.9760   -2.0120 H         1 SAP1        0.0000
     51 HY         -1.9210   -4.9260   -2.6630 H         1 SAP1        0.0000
     52 O31        -3.4680   -5.1780   -3.9940 O.3       1 SAP1        0.0000
     53 C31        -4.4270   -6.0470   -4.2330 C.2       1 SAP1        0.0000
     54 O32        -4.9220   -6.8130   -3.4260 O.2       1 SAP1        0.0000
     55 C32        -4.8000   -5.9530   -5.7130 C.3       1 SAP1        0.0000
     56 H2X        -3.9090   -6.2450   -6.3060 H         1 SAP1        0.0000
     57 H2Y        -5.0460   -4.8920   -5.9340 H         1 SAP1        0.0000
     58 C23        -8.2790   -4.7770   -1.6960 C.3       1 SAP1        0.0000
     59 H3R        -8.4560   -4.8400   -2.7940 H         1 SAP1        0.0000
     60 H3S        -9.2410   -4.4750   -1.2190 H         1 SAP1        0.0000
     61 C24        -7.8630   -6.1530   -1.1460 C.3       1 SAP1        0.0000
     62 H4R        -7.5800   -6.0390   -0.0760 H         1 SAP1        0.0000
     63 H4S        -6.9410   -6.4810   -1.6790 H         1 SAP1        0.0000
     64 C25        -8.9730   -7.1680   -1.2690 C.2       1 SAP1        0.0000
     65 H5R        -9.7810   -7.0660   -0.5290 H         1 SAP1        0.0000
     66 C26        -9.0430   -8.1630   -2.1760 C.2       1 SAP1        0.0000
     67 H6R        -9.9050   -8.8470   -2.1530 H         1 SAP1        0.0000
     68 C27        -8.0370   -8.4460   -3.2650 C.3       1 SAP1        0.0000
     69 H7R        -7.6030   -7.4920   -3.6350 H         1 SAP1        0.0000
     70 H7S        -8.5580   -8.8880   -4.1430 H         1 SAP1        0.0000
     71 C28        -6.9020   -9.3250   -2.7980 C.2       1 SAP1        0.0000
     72 H8R        -6.1480   -8.8060   -2.1830 H         1 SAP1        0.0000
     73 C29        -6.7130  -10.6220   -3.1080 C.2       1 SAP1        0.0000
     74 H9R        -5.8310  -11.1390   -2.7000 H         1 SAP1        0.0000
     75 C210       -7.6240  -11.4730   -3.9610 C.3       1 SAP1        0.0000
     76 H10R       -8.6810  -11.1940   -3.7600 H         1 SAP1        0.0000
     77 H10S       -7.5310  -12.5330   -3.6380 H         1 SAP1        0.0000
     78 C211       -7.2990  -11.3700   -5.4340 C.2       1 SAP1        0.0000
     79 H11R       -6.2230  -11.3290   -5.6700 H         1 SAP1        0.0000
     80 C212       -8.1780  -11.3060   -6.4550 C.2       1 SAP1        0.0000
     81 H12R       -7.7820  -11.2200   -7.4790 H         1 SAP1        0.0000
     82 C213       -9.6860  -11.3390   -6.3690 C.3       1 SAP1        0.0000
     83 H13R      -10.0290  -11.5290   -5.3300 H         1 SAP1        0.0000
     84 H13S      -10.0530  -12.2040   -6.9600 H         1 SAP1        0.0000
     85 C214      -10.2930  -10.0390   -6.8440 C.2       1 SAP1        0.0000
     86 H14R       -9.8060   -9.1320   -6.4490 H         1 SAP1        0.0000
     87 C215      -11.3530   -9.8910   -7.6630 C.2       1 SAP1        0.0000
     88 H15R      -11.6890   -8.8720   -7.9110 H         1 SAP1        0.0000
     89 C216      -12.1710  -10.9950   -8.2890 C.3       1 SAP1        0.0000
     90 H16R      -11.6060  -11.9500   -8.3310 H         1 SAP1        0.0000
     91 H16S      -12.4200  -10.7350   -9.3420 H         1 SAP1        0.0000
     92 C217      -13.4820  -11.2310   -7.5150 C.3       1 SAP1        0.0000
     93 H17R      -14.0740  -10.2870   -7.5100 H         1 SAP1        0.0000
     94 H17S      -13.2550  -11.4910   -6.4560 H         1 SAP1        0.0000
     95 C218      -14.3590  -12.3440   -8.1150 C.3       1 SAP1        0.0000
     96 H18R      -14.5300  -12.1380   -9.1950 H         1 SAP1        0.0000
     97 H18S      -15.3500  -12.3230   -7.6070 H         1 SAP1        0.0000
     98 C219      -13.7680  -13.7520   -7.9480 C.3       1 SAP1        0.0000
     99 H19R      -13.5620  -13.9230   -6.8660 H         1 SAP1        0.0000
    100 H19S      -12.7950  -13.8090   -8.4850 H         1 SAP1        0.0000
    101 C220      -14.6880  -14.8620   -8.4640 C.3       1 SAP1        0.0000
    102 H20R      -14.8740  -14.7380   -9.5520 H         1 SAP1        0.0000
    103 H20S      -15.6650  -14.8340   -7.9350 H         1 SAP1        0.0000
    104 H20T      -14.2270  -15.8590   -8.2970 H         1 SAP1        0.0000
    105 C33        -5.9980   -6.8550   -6.0620 C.3       1 SAP1        0.0000
    106 H3X        -6.8990   -6.4810   -5.5240 H         1 SAP1        0.0000
    107 H3Y        -5.8090   -7.8960   -5.7120 H         1 SAP1        0.0000
    108 C34        -6.3010   -6.8970   -7.5650 C.3       1 SAP1        0.0000
    109 H4X        -5.4390   -7.3520   -8.1000 H         1 SAP1        0.0000
    110 H4Y        -6.4360   -5.8610   -7.9480 H         1 SAP1        0.0000
    111 C35        -7.5720   -7.7100   -7.8290 C.3       1 SAP1        0.0000
    112 H5X        -8.4180   -7.2070   -7.3060 H         1 SAP1        0.0000
    113 H5Y        -7.4510   -8.7170   -7.3720 H         1 SAP1        0.0000
    114 C36        -7.9430   -7.8810   -9.3090 C.3       1 SAP1        0.0000
    115 H6X        -7.9960   -6.8900   -9.8090 H         1 SAP1        0.0000
    116 H6Y        -8.9650   -8.3180   -9.3210 H         1 SAP1        0.0000
    117 C37        -6.9930   -8.8090  -10.0850 C.3       1 SAP1        0.0000
    118 H7X        -6.8390   -9.7420   -9.4980 H         1 SAP1        0.0000
    119 H7Y        -6.0040   -8.3090  -10.1900 H         1 SAP1        0.0000
    120 C38        -7.5100   -9.1910  -11.4850 C.3       1 SAP1        0.0000
    121 H8X        -6.7400   -9.8170  -11.9910 H         1 SAP1        0.0000
    122 H8Y        -7.6430   -8.2670  -12.0900 H         1 SAP1        0.0000
    123 C39        -8.8350   -9.9710  -11.4610 C.3       1 SAP1        0.0000
    124 H9X        -9.6240   -9.3620  -10.9680 H         1 SAP1        0.0000
    125 H9Y        -8.7020  -10.8990  -10.8610 H         1 SAP1        0.0000
    126 C310       -9.3470  -10.3370  -12.8590 C.3       1 SAP1        0.0000
    127 H10X       -8.5950  -10.9800  -13.3690 H         1 SAP1        0.0000
    128 H10Y       -9.4670   -9.4110  -13.4630 H         1 SAP1        0.0000
    129 C311      -10.6890  -11.0800  -12.8020 C.3       1 SAP1        0.0000
    130 H11X      -11.4510  -10.4420  -12.3030 H         1 SAP1        0.0000
    131 H11Y      -10.5430  -11.9860  -12.1730 H         1 SAP1        0.0000
    132 C312      -11.1960  -11.4850  -14.1940 C.3       1 SAP1        0.0000
    133 H12X      -10.3820  -12.0450  -14.7100 H         1 SAP1        0.0000
    134 H12Y      -11.4030  -10.5670  -14.7880 H         1 SAP1        0.0000
    135 C313      -12.4530  -12.3710  -14.1760 C.3       1 SAP1        0.0000
    136 H13X      -12.6620  -12.6940  -15.2210 H         1 SAP1        0.0000
    137 H13Y      -13.3290  -11.7840  -13.8210 H         1 SAP1        0.0000
    138 C314      -12.2870  -13.6160  -13.2920 C.3       1 SAP1        0.0000
    139 H14X      -12.3610  -13.3160  -12.2220 H         1 SAP1        0.0000
    140 H14Y      -11.2660  -14.0240  -13.4630 H         1 SAP1        0.0000
    141 C315      -13.3150  -14.7210  -13.5690 C.3       1 SAP1        0.0000
    142 H15X      -13.2000  -15.0770  -14.6160 H         1 SAP1        0.0000
    143 H15Y      -14.3380  -14.2940  -13.4690 H         1 SAP1        0.0000
    144 C316      -13.1800  -15.9180  -12.6100 C.3       1 SAP1        0.0000
    145 H16X      -13.9920  -16.6470  -12.8280 H         1 SAP1        0.0000
    146 H16Y      -13.3190  -15.5590  -11.5650 H         1 SAP1        0.0000
    147 C317      -11.8290  -16.6450  -12.7080 C.3       1 SAP1        0.0000
    148 H17X      -11.0070  -15.9310  -12.4770 H         1 SAP1        0.0000
    149 H17Y      -11.6860  -16.9900  -13.7570 H         1 SAP1        0.0000
    150 C318      -11.7090  -17.8410  -11.7600 C.3       1 SAP1        0.0000
    151 H18X      -12.5010  -18.5900  -11.9730 H         1 SAP1        0.0000
    152 H18Y      -11.8120  -17.5090  -10.7040 H         1 SAP1        0.0000
    153 H18Z      -10.7190  -18.3310  -11.8770 H         1 SAP1        0.0000
@<TRIPOS>BOND
     1  136  135 1 
     2  134  132 1 
     3  133  132 1 
     4  142  141 1 
     5  132  135 1 
     6  132  129 1 
     7  135  137 1 
     8  135  138 1 
     9  149  147 1 
    10  141  143 1 
    11  141  138 1 
    12  141  144 1 
    13  128  126 1 
    14  140  138 1 
    15  127  126 1 
    16  138  139 1 
    17  126  129 1 
    18  126  123 1 
    19  145  144 1 
    20  129  130 1 
    21  129  131 1 
    22  147  144 1 
    23  147  148 1 
    24  147  150 1 
    25  144  146 1 
    26  122  120 1 
    27  121  120 1 
    28  151  150 1 
    29  153  150 1 
    30  150  152 1 
    31  120  123 1 
    32  120  117 1 
    33  123  124 1 
    34  123  125 1 
    35  119  117 1 
    36  117  118 1 
    37  117  114 1 
    38  115  114 1 
    39  102  101 1 
    40   91   89 1 
    41  116  114 1 
    42  114  111 1 
    43   96   95 1 
    44  100   98 1 
    45  101  104 1 
    46  101   98 1 
    47  101  103 1 
    48   90   89 1 
    49   89   87 1 
    50   89   92 1 
    51   95   98 1 
    52   95   97 1 
    53   95   92 1 
    54  109  108 1 
    55  110  108 1 
    56   98   99 1 
    57   88   87 1 
    58  111  108 1 
    59  111  113 1 
    60  111  112 1 
    61   87   85 2 
    62  108  105 1 
    63   92   93 1 
    64   92   94 1 
    65   81   80 1 
    66   84   82 1 
    67   85   86 1 
    68   85   82 1 
    69   80   82 1 
    70   80   78 2 
    71   82   83 1 
    72   56   55 1 
    73  105   55 1 
    74  105  107 1 
    75  105  106 1 
    76   57   55 1 
    77   55   53 1 
    78   79   78 1 
    79   78   75 1 
    80   53   52 1 
    81   53   54 2 
    82   70   68 1 
    83   52   49 1 
    84   75   76 1 
    85   75   77 1 
    86   75   73 1 
    87   69   68 1 
    88   45   44 2 
    89   68   71 1 
    90   68   66 1 
    91   73   71 2 
    92   73   74 1 
    93   71   72 1 
    94   59   58 1 
    95   51   49 1 
    96   49   50 1 
    97   49   41 1 
    98   42   41 1 
    99   34   33 2 
   100   35   33 1 
   101    9    8 2 
   102   44   43 1 
   103   44   46 1 
   104   66   67 1 
   105   66   64 2 
   106   41   43 1 
   107   41   38 1 
   108   58   46 1 
   109   58   60 1 
   110   58   61 1 
   111   63   61 1 
   112   47   46 1 
   113   33   37 1 
   114   33   36 1 
   115   46   48 1 
   116   64   61 1 
   117   64   65 1 
   118   61   62 1 
   119   32   31 1 
   120    2    1 1 
   121   37   38 1 
   122    6    5 1 
   123    8   11 1 
   124    8   10 1 
   125    8    7 1 
   126   38   39 1 
   127   38   40 1 
   128   36   31 1 
   129   31    1 1 
   130   31   27 1 
   131    1    5 1 
   132    1    3 1 
   133    5    7 1 
   134    5   12 1 
   135   20   19 1 
   136    4    3 1 
   137   29   27 1 
   138   29   30 1 
   139   14   12 1 
   140   14   15 1 
   141   27   19 1 
   142   27   28 1 
   143   12   19 1 
   144   12   13 1 
   145   19   21 1 
   146   26   22 2 
   147   16   15 2 
   148   23   24 1 
   149   23   22 1 
   150   15   17 1 
   151   15   18 1 
   152   22   21 1 
   153   22   25 1 
