@<TRIPOS>MOLECULE
C:\Users\Praveer\PycharmProjects\pdb_to_mol2_converter\data\pdb\sapi2d.pdb
  150   150     0     0     0
SMALL
GASTEIGER

@<TRIPOS>ATOM
      1 C12         1.6560   -0.0030   -0.2110 C.3       1 SAP1        0.0000
      2 H2          1.9120   -0.4590   -1.1970 H         1 SAP1        0.0000
      3 O2          2.1700   -0.8430    0.8200 O.3       1 SAP1        0.0000
      4 HO2         3.1200   -0.7490    0.6380 H         1 SAP1        0.0000
      5 C13         2.3780    1.3390   -0.0990 C.3       1 SAP1        0.0000
      6 H3          2.1490    1.9350   -1.0140 H         1 SAP1        0.0000
      7 O3          3.8040    1.1760   -0.0070 O.3       1 SAP1        0.0000
      8 P3          4.8410    0.6570   -1.1880 P.3       1 SAP1        0.0000
      9 OP32        5.0600    1.8220   -2.1520 O.2       1 SAP1        0.0000
     10 OP33        6.1160    0.2710   -0.4380 O.3       1 SAP1        0.0000
     11 OP34        4.1940   -0.5480   -1.8450 O.3       1 SAP1        0.0000
     12 C14         1.8710    2.1380    1.1110 C.3       1 SAP1        0.0000
     13 H4          2.3920    1.6030    1.9530 H         1 SAP1        0.0000
     14 O4          2.3610    3.4780    1.1950 O.3       1 SAP1        0.0000
     15 P4          1.8880    4.7080    0.2350 P.3       1 SAP1        0.0000
     16 OP42        1.1170    5.5840    1.3200 O.3       1 SAP1        0.0000
     17 HP42        1.5080    6.4590    1.2230 H         1 SAP1        0.0000
     18 OP43        0.8800    4.3230   -0.8270 O.2       1 SAP1        0.0000
     19 OP44        3.0440    5.6300   -0.1320 O.3       1 SAP1        0.0000
     20 C15         0.3960    1.9890    1.5230 C.3       1 SAP1        0.0000
     21 H5         -0.1640    2.7530    0.9210 H         1 SAP1        0.0000
     22 O5          0.2710    2.3630    2.8960 O.3       1 SAP1        0.0000
     23 HO5         0.9290    3.0670    2.9570 H         1 SAP1        0.0000
     24 C16        -0.3240    0.6810    1.1690 C.3       1 SAP1        0.0000
     25 H6         -0.0420   -0.0520    1.9640 H         1 SAP1        0.0000
     26 O6         -1.7440    0.8360    1.2220 O.3       1 SAP1        0.0000
     27 HO6        -2.1220   -0.0430    1.0370 H         1 SAP1        0.0000
     28 C11         0.1300    0.0660   -0.1480 C.3       1 SAP1        0.0000
     29 H1         -0.1870    0.7390   -0.9830 H         1 SAP1        0.0000
     30 P          -1.8380   -1.7810   -0.7730 P.3       1 SAP1        0.0000
     31 O13        -2.3110   -1.1970   -2.0510 O.2       1 SAP1        0.0000
     32 O14        -2.7170   -1.6070    0.4050 O.3       1 SAP1        0.0000
     33 O12        -0.3360   -1.2720   -0.3940 O.3       1 SAP1        0.0000
     34 O11        -1.6020   -3.3380   -1.0040 O.3       1 SAP1        0.0000
     35 C1         -1.1030   -3.8650   -2.2390 C.3       1 SAP1        0.0000
     36 HA         -0.0790   -4.2660   -2.0800 H         1 SAP1        0.0000
     37 HB         -1.0240   -3.0910   -3.0440 H         1 SAP1        0.0000
     38 C2         -2.0180   -5.0200   -2.7470 C.3       1 SAP1        0.0000
     39 HS         -1.6880   -5.3250   -3.7680 H         1 SAP1        0.0000
     40 O21        -3.3840   -4.5820   -2.7480 O.3       1 SAP1        0.0000
     41 C21        -3.6410   -3.6520   -3.6510 C.2       1 SAP1        0.0000
     42 O22        -3.0190   -3.4760   -4.6900 O.2       1 SAP1        0.0000
     43 C22        -4.8730   -2.8640   -3.2170 C.3       1 SAP1        0.0000
     44 H2R        -4.6270   -1.7900   -3.3650 H         1 SAP1        0.0000
     45 H2S        -5.0290   -3.0230   -2.1310 H         1 SAP1        0.0000
     46 C3         -1.9010   -6.2730   -1.8270 C.3       1 SAP1        0.0000
     47 HX         -2.1300   -5.9220   -0.7950 H         1 SAP1        0.0000
     48 HY         -0.8460   -6.6270   -1.8240 H         1 SAP1        0.0000
     49 O31        -2.8220   -7.3420   -2.1540 O.3       1 SAP1        0.0000
     50 C31        -2.5290   -8.0490   -3.2360 C.2       1 SAP1        0.0000
     51 O32        -1.5660   -7.8750   -3.9630 O.2       1 SAP1        0.0000
     52 C32        -3.5360   -9.1920   -3.3890 C.3       1 SAP1        0.0000
     53 H2X        -4.2700   -9.1510   -2.5580 H         1 SAP1        0.0000
     54 H2Y        -2.9600  -10.1380   -3.3020 H         1 SAP1        0.0000
     55 C23        -6.1230   -3.2510   -4.0390 C.3       1 SAP1        0.0000
     56 H3R        -5.9080   -3.0800   -5.1190 H         1 SAP1        0.0000
     57 H3S        -6.9570   -2.5670   -3.7600 H         1 SAP1        0.0000
     58 C24        -6.5760   -4.7160   -3.8480 C.3       1 SAP1        0.0000
     59 H4R        -5.7330   -5.3860   -4.1300 H         1 SAP1        0.0000
     60 H4S        -7.3980   -4.9090   -4.5740 H         1 SAP1        0.0000
     61 C25        -7.0410   -5.0440   -2.4500 C.2       1 SAP1        0.0000
     62 H5R        -6.8760   -4.2560   -1.6980 H         1 SAP1        0.0000
     63 C26        -7.6220   -6.1990   -2.0720 C.2       1 SAP1        0.0000
     64 H6R        -7.9260   -6.3150   -1.0190 H         1 SAP1        0.0000
     65 C27        -7.9020   -7.3840   -2.9700 C.3       1 SAP1        0.0000
     66 H7R        -7.2980   -7.3200   -3.9020 H         1 SAP1        0.0000
     67 H7S        -8.9640   -7.3410   -3.2920 H         1 SAP1        0.0000
     68 C28        -7.5860   -8.7000   -2.2960 C.2       1 SAP1        0.0000
     69 H8R        -6.6160   -8.7200   -1.7750 H         1 SAP1        0.0000
     70 C29        -8.3390   -9.8210   -2.2840 C.2       1 SAP1        0.0000
     71 H9R        -7.9530  -10.7000   -1.7430 H         1 SAP1        0.0000
     72 C210       -9.6860  -10.0420   -2.9340 C.3       1 SAP1        0.0000
     73 H10R      -10.1360   -9.0770   -3.2500 H         1 SAP1        0.0000
     74 H10S      -10.3890  -10.4630   -2.1820 H         1 SAP1        0.0000
     75 C211       -9.5620  -10.9320   -4.1490 C.2       1 SAP1        0.0000
     76 H11R       -8.7830  -10.6140   -4.8620 H         1 SAP1        0.0000
     77 C212      -10.2850  -12.0290   -4.4550 C.2       1 SAP1        0.0000
     78 H12R      -10.0550  -12.5510   -5.3960 H         1 SAP1        0.0000
     79 C213      -11.4140  -12.6620   -3.6770 C.3       1 SAP1        0.0000
     80 H13R      -11.5740  -12.1560   -2.7000 H         1 SAP1        0.0000
     81 H13S      -11.1420  -13.7110   -3.4260 H         1 SAP1        0.0000
     82 C214      -12.6920  -12.6020   -4.4810 C.2       1 SAP1        0.0000
     83 H14R      -13.0870  -11.5820   -4.6120 H         1 SAP1        0.0000
     84 C215      -13.3780  -13.6230   -5.0370 C.2       1 SAP1        0.0000
     85 H15R      -14.2970  -13.3880   -5.5960 H         1 SAP1        0.0000
     86 C216      -13.0430  -15.0960   -5.0030 C.3       1 SAP1        0.0000
     87 H16R      -12.0440  -15.2920   -4.5580 H         1 SAP1        0.0000
     88 H16S      -13.0090  -15.4870   -6.0430 H         1 SAP1        0.0000
     89 C217      -14.0930  -15.9010   -4.2100 C.3       1 SAP1        0.0000
     90 H17R      -15.1100  -15.7060   -4.6150 H         1 SAP1        0.0000
     91 H17S      -14.0870  -15.5480   -3.1520 H         1 SAP1        0.0000
     92 C218      -13.8400  -17.4220   -4.2100 C.3       1 SAP1        0.0000
     93 H18R      -14.5660  -17.8980   -3.5110 H         1 SAP1        0.0000
     94 H18S      -12.8190  -17.6150   -3.8120 H         1 SAP1        0.0000
     95 C219      -13.9820  -18.1070   -5.5810 C.3       1 SAP1        0.0000
     96 H19R      -13.7600  -19.1920   -5.4530 H         1 SAP1        0.0000
     97 H19S      -13.2130  -17.7000   -6.2750 H         1 SAP1        0.0000
     98 C220      -15.3650  -17.9620   -6.2250 C.3       1 SAP1        0.0000
     99 H20R      -15.5750  -16.9000   -6.4720 H         1 SAP1        0.0000
    100 H20S      -16.1560  -18.3260   -5.5330 H         1 SAP1        0.0000
    101 H20T      -15.4230  -18.5510   -7.1640 H         1 SAP1        0.0000
    102 C33        -4.2830   -9.1830   -4.7440 C.3       1 SAP1        0.0000
    103 H3X        -3.5600   -9.0680   -5.5850 H         1 SAP1        0.0000
    104 H3Y        -4.9830   -8.3180   -4.7730 H         1 SAP1        0.0000
    105 C34        -5.0640  -10.4890   -4.9440 C.3       1 SAP1        0.0000
    106 H4X        -5.6930  -10.6790   -4.0440 H         1 SAP1        0.0000
    107 H4Y        -4.3370  -11.3280   -5.0330 H         1 SAP1        0.0000
    108 C35        -5.9780  -10.4930   -6.1760 C.3       1 SAP1        0.0000
    109 H5X        -5.3940  -10.2370   -7.0870 H         1 SAP1        0.0000
    110 H5Y        -6.7630   -9.7140   -6.0450 H         1 SAP1        0.0000
    111 C36        -6.6480  -11.8600   -6.3750 C.3       1 SAP1        0.0000
    112 H6X        -7.1270  -12.1660   -5.4170 H         1 SAP1        0.0000
    113 H6Y        -5.8730  -12.6210   -6.6160 H         1 SAP1        0.0000
    114 C37        -7.7170  -11.8470   -7.4750 C.3       1 SAP1        0.0000
    115 H7X        -7.2590  -11.5560   -8.4470 H         1 SAP1        0.0000
    116 H7Y        -8.4770  -11.0760   -7.2130 H         1 SAP1        0.0000
    117 C38        -8.4200  -13.2030   -7.6250 C.3       1 SAP1        0.0000
    118 H8X        -8.6640  -13.5960   -6.6130 H         1 SAP1        0.0000
    119 H8Y        -7.7260  -13.9320   -8.0990 H         1 SAP1        0.0000
    120 C39        -9.7170  -13.1040   -8.4400 C.3       1 SAP1        0.0000
    121 H9X        -9.4530  -12.9500   -9.5110 H         1 SAP1        0.0000
    122 H9Y       -10.2940  -12.2130   -8.1000 H         1 SAP1        0.0000
    123 C310      -10.6260  -14.3360   -8.3090 C.3       1 SAP1        0.0000
    124 H10X      -11.4700  -14.2270   -9.0260 H         1 SAP1        0.0000
    125 H10Y      -11.0630  -14.3690   -7.2850 H         1 SAP1        0.0000
    126 C311       -9.9030  -15.6610   -8.5850 C.3       1 SAP1        0.0000
    127 H11X       -9.1940  -15.8760   -7.7540 H         1 SAP1        0.0000
    128 H11Y       -9.3130  -15.5610   -9.5260 H         1 SAP1        0.0000
    129 C312      -10.8670  -16.8440   -8.7410 C.3       1 SAP1        0.0000
    130 H12X      -11.5030  -16.6570   -9.6360 H         1 SAP1        0.0000
    131 H12Y      -11.5400  -16.9120   -7.8590 H         1 SAP1        0.0000
    132 C313      -10.1230  -18.1740   -8.9270 C.3       1 SAP1        0.0000
    133 H13X       -9.7360  -18.5250   -7.9450 H         1 SAP1        0.0000
    134 H13Y       -9.2440  -17.9920   -9.5880 H         1 SAP1        0.0000
    135 C314      -10.9760  -19.2680   -9.5860 C.3       1 SAP1        0.0000
    136 H14X      -10.3460  -20.1740   -9.7390 H         1 SAP1        0.0000
    137 H14Y      -11.2890  -18.9070  -10.5920 H         1 SAP1        0.0000
    138 C315      -12.2320  -19.6700   -8.8000 C.3       1 SAP1        0.0000
    139 H15X      -12.8450  -18.7680   -8.5810 H         1 SAP1        0.0000
    140 H15Y      -11.9340  -20.1250   -7.8290 H         1 SAP1        0.0000
    141 C316      -13.0850  -20.6640   -9.6000 C.3       1 SAP1        0.0000
    142 H16X      -12.4680  -21.5570   -9.8450 H         1 SAP1        0.0000
    143 H16Y      -13.3800  -20.1860  -10.5620 H         1 SAP1        0.0000
    144 C317      -14.3510  -21.1210   -8.8690 C.3       1 SAP1        0.0000
    145 H17X      -14.9640  -20.2270   -8.6130 H         1 SAP1        0.0000
    146 H17Y      -14.0610  -21.6150   -7.9140 H         1 SAP1        0.0000
    147 C318      -15.1940  -22.0840   -9.7090 C.3       1 SAP1        0.0000
    148 H18X      -14.5970  -22.9800   -9.9830 H         1 SAP1        0.0000
    149 H18Y      -15.5270  -21.5870  -10.6460 H         1 SAP1        0.0000
    150 H18Z      -16.0920  -22.4170   -9.1470 H         1 SAP1        0.0000
@<TRIPOS>BOND
     1  149  147 1 
     2  137  135 1 
     3  143  141 1 
     4  148  147 1 
     5  142  141 1 
     6  136  135 1 
     7  147  150 1 
     8  147  144 1 
     9  130  129 1 
    10  141  144 1 
    11  141  138 1 
    12  134  132 1 
    13  135  132 1 
    14  135  138 1 
    15  128  126 1 
    16  121  120 1 
    17  124  123 1 
    18  132  129 1 
    19  132  133 1 
    20  144  145 1 
    21  144  146 1 
    22  138  139 1 
    23  138  140 1 
    24  129  126 1 
    25  129  131 1 
    26  126  123 1 
    27  126  127 1 
    28  115  114 1 
    29  120  123 1 
    30  120  122 1 
    31  120  117 1 
    32  123  125 1 
    33  119  117 1 
    34  117  114 1 
    35  117  118 1 
    36  114  116 1 
    37  114  111 1 
    38  101   98 1 
    39  109  108 1 
    40  113  111 1 
    41   99   98 1 
    42  111  108 1 
    43  111  112 1 
    44   97   95 1 
    45   98   95 1 
    46   98  100 1 
    47  108  110 1 
    48  108  105 1 
    49   88   86 1 
    50   85   84 1 
    51  103  102 1 
    52   95   96 1 
    53   95   92 1 
    54   78   77 1 
    55   56   55 1 
    56   84   86 1 
    57   84   82 2 
    58  107  105 1 
    59   86   87 1 
    60   86   89 1 
    61  105  102 1 
    62  105  106 1 
    63   76   75 1 
    64  104  102 1 
    65  102   52 1 
    66   42   41 2 
    67   90   89 1 
    68   83   82 1 
    69   60   58 1 
    70   82   79 1 
    71   77   75 2 
    72   77   79 1 
    73   92   89 1 
    74   92   94 1 
    75   92   93 1 
    76   89   91 1 
    77   75   72 1 
    78   59   58 1 
    79   55   58 1 
    80   55   57 1 
    81   55   43 1 
    82   51   50 2 
    83   66   65 1 
    84   58   61 1 
    85   39   38 1 
    86   79   81 1 
    87   79   80 1 
    88   41   43 1 
    89   41   40 1 
    90   52   54 1 
    91   52   50 1 
    92   52   53 1 
    93   44   43 1 
    94   67   65 1 
    95   73   72 1 
    96   50   49 1 
    97   43   45 1 
    98   37   35 1 
    99   65   68 1 
   100   65   63 1 
   101   72   70 1 
   102   72   74 1 
   103   40   38 1 
   104   38   35 1 
   105   38   46 1 
   106   61   63 2 
   107   61   62 1 
   108   68   70 2 
   109   68   69 1 
   110   70   71 1 
   111   35   36 1 
   112   35   34 1 
   113   49   46 1 
   114    9    8 2 
   115   63   64 1 
   116   31   30 2 
   117   11    8 1 
   118   46   48 1 
   119   46   47 1 
   120    2    1 1 
   121    8   10 1 
   122    8    7 1 
   123    6    5 1 
   124   34   30 1 
   125   29   28 1 
   126   18   15 2 
   127   30   33 1 
   128   30   32 1 
   129   33   28 1 
   130    1   28 1 
   131    1    5 1 
   132    1    3 1 
   133   28   24 1 
   134   19   15 1 
   135    5    7 1 
   136    5   12 1 
   137   15   14 1 
   138   15   16 1 
   139    4    3 1 
   140   21   20 1 
   141   27   26 1 
   142   12   14 1 
   143   12   20 1 
   144   12   13 1 
   145   24   26 1 
   146   24   20 1 
   147   24   25 1 
   148   17   16 1 
   149   20   22 1 
   150   22   23 1 
