@<TRIPOS>MOLECULE
C:\Users\Praveer\PycharmProjects\pdb_to_mol2_converter\data\pdb\sapi2c.pdb
  150   150     0     0     0
SMALL
GASTEIGER

@<TRIPOS>ATOM
      1 C12         1.6550   -0.0680   -0.0320 C.3       1 SAP1        0.0000
      2 H2          2.0330   -0.5650   -0.9560 H         1 SAP1        0.0000
      3 O2          2.1250   -0.8170    1.0870 O.3       1 SAP1        0.0000
      4 HO2         2.9450   -0.3320    1.2650 H         1 SAP1        0.0000
      5 C13         2.2740    1.3240    0.0490 C.3       1 SAP1        0.0000
      6 H3          1.9780    1.8970   -0.8670 H         1 SAP1        0.0000
      7 O3          3.7040    1.1990    0.1710 O.3       1 SAP1        0.0000
      8 P3          4.6570    1.0990   -1.1660 P.3       1 SAP1        0.0000
      9 OP32        4.8170    2.5950   -1.6660 O.3       1 SAP1        0.0000
     10 HP32        4.2490    3.2220   -1.1570 H         1 SAP1        0.0000
     11 OP33        6.0230    0.5820   -0.7220 O.3       1 SAP1        0.0000
     12 OP34        3.9610    0.2720   -2.2390 O.2       1 SAP1        0.0000
     13 C14         1.7290    2.0940    1.2540 C.3       1 SAP1        0.0000
     14 H4          2.1580    1.5620    2.1400 H         1 SAP1        0.0000
     15 O4          2.1580    3.4490    1.3930 O.3       1 SAP1        0.0000
     16 P4          2.1350    4.6490    0.2700 P.3       1 SAP1        0.0000
     17 OP42        1.9760    5.9300    1.0870 O.3       1 SAP1        0.0000
     18 OP43        0.9410    4.3790   -0.6330 O.2       1 SAP1        0.0000
     19 OP44        3.4720    4.5670   -0.4550 O.3       1 SAP1        0.0000
     20 C15         0.2150    1.9780    1.4550 C.3       1 SAP1        0.0000
     21 H5         -0.2430    2.6670    0.6990 H         1 SAP1        0.0000
     22 O5         -0.1110    2.4880    2.7470 O.3       1 SAP1        0.0000
     23 HO5         0.3570    3.3350    2.7190 H         1 SAP1        0.0000
     24 C16        -0.4250    0.6090    1.1650 C.3       1 SAP1        0.0000
     25 H6         -0.1500   -0.0450    2.0260 H         1 SAP1        0.0000
     26 O6         -1.8530    0.6900    1.1380 O.3       1 SAP1        0.0000
     27 HO6        -2.1850   -0.2220    1.0810 H         1 SAP1        0.0000
     28 C11         0.1330   -0.0540   -0.0930 C.3       1 SAP1        0.0000
     29 H1         -0.1580    0.5770   -0.9670 H         1 SAP1        0.0000
     30 P          -1.7410   -1.9890   -0.6710 P.3       1 SAP1        0.0000
     31 O13        -2.3230   -1.3560   -1.8760 O.2       1 SAP1        0.0000
     32 O14        -2.5590   -1.9500    0.5640 O.3       1 SAP1        0.0000
     33 O12        -0.2490   -1.4170   -0.3370 O.3       1 SAP1        0.0000
     34 O11        -1.4120   -3.5020   -1.0270 O.3       1 SAP1        0.0000
     35 C1         -1.0490   -3.9040   -2.3520 C.3       1 SAP1        0.0000
     36 HA         -0.0080   -4.2930   -2.3390 H         1 SAP1        0.0000
     37 HB         -1.0630   -3.0680   -3.0940 H         1 SAP1        0.0000
     38 C2         -2.0130   -5.0240   -2.8380 C.3       1 SAP1        0.0000
     39 HS         -1.7390   -5.3200   -3.8780 H         1 SAP1        0.0000
     40 O21        -3.3720   -4.5610   -2.7690 O.3       1 SAP1        0.0000
     41 C21        -3.6650   -3.6330   -3.6670 C.2       1 SAP1        0.0000
     42 O22        -3.0620   -3.4430   -4.7130 O.2       1 SAP1        0.0000
     43 C22        -4.9070   -2.8650   -3.2220 C.3       1 SAP1        0.0000
     44 H2R        -4.6720   -1.7880   -3.3650 H         1 SAP1        0.0000
     45 H2S        -5.0630   -3.0300   -2.1380 H         1 SAP1        0.0000
     46 C3         -1.8600   -6.2780   -1.9300 C.3       1 SAP1        0.0000
     47 HX         -2.0130   -5.9270   -0.8840 H         1 SAP1        0.0000
     48 HY         -0.8110   -6.6430   -1.9990 H         1 SAP1        0.0000
     49 O31        -2.8160   -7.3290   -2.1990 O.3       1 SAP1        0.0000
     50 C31        -2.5740   -8.0490   -3.2820 C.2       1 SAP1        0.0000
     51 O32        -1.6520   -7.8840   -4.0590 O.2       1 SAP1        0.0000
     52 C32        -3.5810   -9.1990   -3.3630 C.3       1 SAP1        0.0000
     53 H2X        -4.2710   -9.1580   -2.4970 H         1 SAP1        0.0000
     54 H2Y        -2.9880  -10.1360   -3.2930 H         1 SAP1        0.0000
     55 C23        -6.1550   -3.2510   -4.0500 C.3       1 SAP1        0.0000
     56 H3R        -5.9400   -3.0700   -5.1290 H         1 SAP1        0.0000
     57 H3S        -6.9930   -2.5740   -3.7650 H         1 SAP1        0.0000
     58 C24        -6.5990   -4.7180   -3.8690 C.3       1 SAP1        0.0000
     59 H4R        -5.7580   -5.3850   -4.1670 H         1 SAP1        0.0000
     60 H4S        -7.4310   -4.9110   -4.5840 H         1 SAP1        0.0000
     61 C25        -7.0410   -5.0430   -2.4640 C.2       1 SAP1        0.0000
     62 H5R        -6.8730   -4.2530   -1.7160 H         1 SAP1        0.0000
     63 C26        -7.6100   -6.2000   -2.0770 C.2       1 SAP1        0.0000
     64 H6R        -7.9000   -6.3160   -1.0190 H         1 SAP1        0.0000
     65 C27        -7.8960   -7.3850   -2.9690 C.3       1 SAP1        0.0000
     66 H7R        -7.2880   -7.3370   -3.8990 H         1 SAP1        0.0000
     67 H7S        -8.9560   -7.3270   -3.2960 H         1 SAP1        0.0000
     68 C28        -7.6070   -8.6960   -2.2750 C.2       1 SAP1        0.0000
     69 H8R        -6.6510   -8.7220   -1.7250 H         1 SAP1        0.0000
     70 C29        -8.3750   -9.8050   -2.2710 C.2       1 SAP1        0.0000
     71 H9R        -8.0160  -10.6850   -1.7140 H         1 SAP1        0.0000
     72 C210       -9.7050  -10.0130   -2.9580 C.3       1 SAP1        0.0000
     73 H10R      -10.1390   -9.0510   -3.3050 H         1 SAP1        0.0000
     74 H10S      -10.4340  -10.4160   -2.2220 H         1 SAP1        0.0000
     75 C211       -9.5470  -10.9200   -4.1550 C.2       1 SAP1        0.0000
     76 H11R       -8.7550  -10.6090   -4.8550 H         1 SAP1        0.0000
     77 C212      -10.2570  -12.0270   -4.4500 C.2       1 SAP1        0.0000
     78 H12R      -10.0090  -12.5660   -5.3770 H         1 SAP1        0.0000
     79 C213      -11.3910  -12.6480   -3.6690 C.3       1 SAP1        0.0000
     80 H13R      -11.5690  -12.1240   -2.7050 H         1 SAP1        0.0000
     81 H13S      -11.1130  -13.6870   -3.3910 H         1 SAP1        0.0000
     82 C214      -12.6610  -12.6090   -4.4860 C.2       1 SAP1        0.0000
     83 H14R      -13.0530  -11.5940   -4.6580 H         1 SAP1        0.0000
     84 C215      -13.3390  -13.6480   -5.0130 C.2       1 SAP1        0.0000
     85 H15R      -14.2540  -13.4350   -5.5880 H         1 SAP1        0.0000
     86 C216      -13.0030  -15.1170   -4.9240 C.3       1 SAP1        0.0000
     87 H16R      -12.0340  -15.3030   -4.4120 H         1 SAP1        0.0000
     88 H16S      -12.8990  -15.5240   -5.9530 H         1 SAP1        0.0000
     89 C217      -14.1000  -15.9050   -4.1810 C.3       1 SAP1        0.0000
     90 H17R      -15.0990  -15.6800   -4.6160 H         1 SAP1        0.0000
     91 H17S      -14.1210  -15.5670   -3.1190 H         1 SAP1        0.0000
     92 C218      -13.8810  -17.4300   -4.1960 C.3       1 SAP1        0.0000
     93 H18R      -14.6230  -17.9000   -3.5110 H         1 SAP1        0.0000
     94 H18S      -12.8670  -17.6500   -3.7930 H         1 SAP1        0.0000
     95 C219      -14.0240  -18.0920   -5.5780 C.3       1 SAP1        0.0000
     96 H19R      -13.7850  -19.1750   -5.4690 H         1 SAP1        0.0000
     97 H19S      -13.2680  -17.6630   -6.2730 H         1 SAP1        0.0000
     98 C220      -15.4160  -17.9600   -6.2040 C.3       1 SAP1        0.0000
     99 H20R      -15.6670  -16.8940   -6.3900 H         1 SAP1        0.0000
    100 H20S      -16.1870  -18.3900   -5.5290 H         1 SAP1        0.0000
    101 H20T      -15.4570  -18.4980   -7.1740 H         1 SAP1        0.0000
    102 C33        -4.3800   -9.2090   -4.6840 C.3       1 SAP1        0.0000
    103 H3X        -3.6980   -9.0230   -5.5460 H         1 SAP1        0.0000
    104 H3Y        -5.1400   -8.3950   -4.6690 H         1 SAP1        0.0000
    105 C34        -5.0770  -10.5570   -4.9090 C.3       1 SAP1        0.0000
    106 H4X        -5.7310  -10.7800   -4.0350 H         1 SAP1        0.0000
    107 H4Y        -4.3070  -11.3590   -4.9720 H         1 SAP1        0.0000
    108 C35        -5.9270  -10.5840   -6.1840 C.3       1 SAP1        0.0000
    109 H5X        -5.3010  -10.3170   -7.0640 H         1 SAP1        0.0000
    110 H5Y        -6.7250   -9.8130   -6.0920 H         1 SAP1        0.0000
    111 C36        -6.5770  -11.9530   -6.4230 C.3       1 SAP1        0.0000
    112 H6X        -7.0350  -12.3010   -5.4690 H         1 SAP1        0.0000
    113 H6Y        -5.8000  -12.6940   -6.7130 H         1 SAP1        0.0000
    114 C37        -7.6710  -11.8950   -7.4950 C.3       1 SAP1        0.0000
    115 H7X        -7.2330  -11.5870   -8.4700 H         1 SAP1        0.0000
    116 H7Y        -8.4080  -11.1150   -7.1940 H         1 SAP1        0.0000
    117 C38        -8.4110  -13.2280   -7.6580 C.3       1 SAP1        0.0000
    118 H8X        -8.6540  -13.6320   -6.6500 H         1 SAP1        0.0000
    119 H8Y        -7.7430  -13.9660   -8.1550 H         1 SAP1        0.0000
    120 C39        -9.7160  -13.0750   -8.4520 C.3       1 SAP1        0.0000
    121 H9X        -9.4660  -12.8940   -9.5220 H         1 SAP1        0.0000
    122 H9Y       -10.2680  -12.1840   -8.0750 H         1 SAP1        0.0000
    123 C310      -10.6490  -14.2900   -8.3400 C.3       1 SAP1        0.0000
    124 H10X      -11.5160  -14.1430   -9.0220 H         1 SAP1        0.0000
    125 H10Y      -11.0470  -14.3510   -7.3020 H         1 SAP1        0.0000
    126 C311       -9.9540  -15.6130   -8.6800 C.3       1 SAP1        0.0000
    127 H11X       -9.1620  -15.8150   -7.9250 H         1 SAP1        0.0000
    128 H11Y       -9.4630  -15.5230   -9.6760 H         1 SAP1        0.0000
    129 C312      -10.9090  -16.8120   -8.7080 C.3       1 SAP1        0.0000
    130 H12X      -11.6060  -16.6890   -9.5670 H         1 SAP1        0.0000
    131 H12Y      -11.5220  -16.8400   -7.7810 H         1 SAP1        0.0000
    132 C313      -10.1440  -18.1350   -8.8520 C.3       1 SAP1        0.0000
    133 H13X       -9.8040  -18.4770   -7.8500 H         1 SAP1        0.0000
    134 H13Y       -9.2330  -17.9450   -9.4660 H         1 SAP1        0.0000
    135 C314      -10.9470  -19.2410   -9.5490 C.3       1 SAP1        0.0000
    136 H14X      -10.2890  -20.1290   -9.6920 H         1 SAP1        0.0000
    137 H14Y      -11.2450  -18.8790  -10.5590 H         1 SAP1        0.0000
    138 C315      -12.2050  -19.6780   -8.7890 C.3       1 SAP1        0.0000
    139 H15X      -12.8450  -18.7920   -8.5810 H         1 SAP1        0.0000
    140 H15Y      -11.9130  -20.1240   -7.8120 H         1 SAP1        0.0000
    141 C316      -13.0220  -20.6930   -9.5990 C.3       1 SAP1        0.0000
    142 H16X      -12.3880  -21.5790   -9.8280 H         1 SAP1        0.0000
    143 H16Y      -13.3060  -20.2260  -10.5700 H         1 SAP1        0.0000
    144 C317      -14.2940  -21.1550   -8.8830 C.3       1 SAP1        0.0000
    145 H17X      -14.8710  -20.2580   -8.5630 H         1 SAP1        0.0000
    146 H17Y      -14.0090  -21.7150   -7.9630 H         1 SAP1        0.0000
    147 C318      -15.1850  -22.0330   -9.7650 C.3       1 SAP1        0.0000
    148 H18X      -14.6300  -22.9350  -10.1010 H         1 SAP1        0.0000
    149 H18Y      -15.5110  -21.4680  -10.6660 H         1 SAP1        0.0000
    150 H18Z      -16.0890  -22.3600   -9.2090 H         1 SAP1        0.0000
@<TRIPOS>BOND
     1  149  147 1 
     2  143  141 1 
     3  137  135 1 
     4  148  147 1 
     5  142  141 1 
     6  147  150 1 
     7  147  144 1 
     8  136  135 1 
     9  128  126 1 
    10  141  144 1 
    11  141  138 1 
    12  130  129 1 
    13  135  132 1 
    14  135  138 1 
    15  121  120 1 
    16  134  132 1 
    17  124  123 1 
    18  144  145 1 
    19  144  146 1 
    20  132  129 1 
    21  132  133 1 
    22  138  139 1 
    23  138  140 1 
    24  129  126 1 
    25  129  131 1 
    26  126  123 1 
    27  126  127 1 
    28  115  114 1 
    29  120  123 1 
    30  120  122 1 
    31  120  117 1 
    32  123  125 1 
    33  119  117 1 
    34  117  114 1 
    35  117  118 1 
    36  114  116 1 
    37  114  111 1 
    38  101   98 1 
    39  109  108 1 
    40  113  111 1 
    41  111  108 1 
    42  111  112 1 
    43   99   98 1 
    44   97   95 1 
    45   98   95 1 
    46   98  100 1 
    47  108  110 1 
    48  108  105 1 
    49   88   86 1 
    50   85   84 1 
    51   95   96 1 
    52   95   92 1 
    53  103  102 1 
    54   78   77 1 
    55   56   55 1 
    56   84   86 1 
    57   84   82 2 
    58  107  105 1 
    59   86   87 1 
    60   86   89 1 
    61  105  102 1 
    62  105  106 1 
    63   76   75 1 
    64   42   41 2 
    65  102  104 1 
    66  102   52 1 
    67   83   82 1 
    68   90   89 1 
    69   60   58 1 
    70   82   79 1 
    71   77   75 2 
    72   77   79 1 
    73   92   89 1 
    74   92   94 1 
    75   92   93 1 
    76   89   91 1 
    77   59   58 1 
    78   75   72 1 
    79   51   50 2 
    80   55   58 1 
    81   55   57 1 
    82   55   43 1 
    83   66   65 1 
    84   39   38 1 
    85   58   61 1 
    86   79   81 1 
    87   79   80 1 
    88   41   43 1 
    89   41   40 1 
    90   44   43 1 
    91   52   54 1 
    92   52   50 1 
    93   52   53 1 
    94   73   72 1 
    95   67   65 1 
    96   50   49 1 
    97   43   45 1 
    98   37   35 1 
    99   65   68 1 
   100   65   63 1 
   101   72   70 1 
   102   72   74 1 
   103   38   40 1 
   104   38   35 1 
   105   38   46 1 
   106   61   63 2 
   107   61   62 1 
   108   35   36 1 
   109   35   34 1 
   110   68   70 2 
   111   68   69 1 
   112   70   71 1 
   113   12    8 2 
   114   49   46 1 
   115   63   64 1 
   116   48   46 1 
   117   46   47 1 
   118   31   30 2 
   119    9    8 1 
   120    9   10 1 
   121    8   11 1 
   122    8    7 1 
   123   34   30 1 
   124   29   28 1 
   125    2    1 1 
   126    6    5 1 
   127   30   33 1 
   128   30   32 1 
   129   18   16 2 
   130   19   16 1 
   131   33   28 1 
   132   28    1 1 
   133   28   24 1 
   134    1    5 1 
   135    1    3 1 
   136    5    7 1 
   137    5   13 1 
   138   16   17 1 
   139   16   15 1 
   140   21   20 1 
   141   27   26 1 
   142    3    4 1 
   143   26   24 1 
   144   24   20 1 
   145   24   25 1 
   146   13   15 1 
   147   13   20 1 
   148   13   14 1 
   149   20   22 1 
   150   23   22 1 
