@<TRIPOS>MOLECULE
C:\Users\Praveer\PycharmProjects\pdb_to_mol2_converter\data\pdb\sapi14.pdb
  146   146     0     0     0
SMALL
GASTEIGER

@<TRIPOS>ATOM
      1 C12         1.5900   -0.0240    0.0290 C.3       1 SAP1        0.0000
      2 H2          1.9670   -0.6030   -0.8480 H         1 SAP1        0.0000
      3 O2          2.0560   -0.6810    1.2040 O.3       1 SAP1        0.0000
      4 HO2         2.8220   -0.1600    1.4760 H         1 SAP1        0.0000
      5 C13         2.1720    1.3740   -0.0630 C.3       1 SAP1        0.0000
      6 H3          1.8570    1.8170   -1.0390 H         1 SAP1        0.0000
      7 O3          3.6000    1.3920   -0.0190 O.3       1 SAP1        0.0000
      8 HO3         3.8450    2.1670    0.5560 H         1 SAP1        0.0000
      9 C14         1.6560    2.2460    1.0560 C.3       1 SAP1        0.0000
     10 H4          2.2010    1.8230    1.9550 H         1 SAP1        0.0000
     11 O4          1.9770    3.6250    0.7860 O.3       1 SAP1        0.0000
     12 P4          3.0340    4.3140    1.8450 P.3       1 SAP1        0.0000
     13 OP42        3.2260    5.7540    1.3910 O.2       1 SAP1        0.0000
     14 OP43        2.3190    4.1570    3.1820 O.3       1 SAP1        0.0000
     15 OP44        4.2680    3.4290    1.6870 O.3       1 SAP1        0.0000
     16 C15         0.1940    2.1310    1.4670 C.3       1 SAP1        0.0000
     17 H5         -0.3490    2.8900    0.8450 H         1 SAP1        0.0000
     18 O5          0.0510    2.5820    2.8120 O.3       1 SAP1        0.0000
     19 HO5         0.8100    3.2020    2.9600 H         1 SAP1        0.0000
     20 C16        -0.5120    0.8050    1.1500 C.3       1 SAP1        0.0000
     21 H6         -0.3760    0.1550    2.0510 H         1 SAP1        0.0000
     22 O6         -1.9130    0.9600    0.9320 O.3       1 SAP1        0.0000
     23 HO6        -2.1360    0.1800    0.4110 H         1 SAP1        0.0000
     24 C11         0.0750    0.0520   -0.0340 C.3       1 SAP1        0.0000
     25 H1         -0.1810    0.6590   -0.9430 H         1 SAP1        0.0000
     26 P          -0.7450   -1.9880   -1.5640 P.3       1 SAP1        0.0000
     27 O13         0.5430   -2.1850   -2.2590 O.3       1 SAP1        0.0000
     28 O14        -1.8150   -1.2680   -2.2910 O.2       1 SAP1        0.0000
     29 O12        -0.5280   -1.2520   -0.1060 O.3       1 SAP1        0.0000
     30 O11        -1.3090   -3.4010   -1.1090 O.3       1 SAP1        0.0000
     31 C1         -2.6750   -3.5370   -0.7140 C.3       1 SAP1        0.0000
     32 HA         -3.0750   -2.6220   -0.2150 H         1 SAP1        0.0000
     33 HB         -2.7480   -4.3660    0.0250 H         1 SAP1        0.0000
     34 C2         -3.5690   -3.8950   -1.9270 C.3       1 SAP1        0.0000
     35 HS         -3.5360   -3.0300   -2.6340 H         1 SAP1        0.0000
     36 O21        -4.8920   -4.1140   -1.4010 O.3       1 SAP1        0.0000
     37 C21        -5.8990   -3.8130   -2.2020 C.2       1 SAP1        0.0000
     38 O22        -5.8330   -3.5680   -3.3890 O.2       1 SAP1        0.0000
     39 C22        -7.1790   -3.6890   -1.3660 C.3       1 SAP1        0.0000
     40 H2R        -7.6040   -2.6920   -1.6090 H         1 SAP1        0.0000
     41 H2S        -6.9220   -3.7030   -0.2880 H         1 SAP1        0.0000
     42 C3         -2.9910   -5.1440   -2.6600 C.3       1 SAP1        0.0000
     43 HX         -3.1900   -6.0560   -2.0520 H         1 SAP1        0.0000
     44 HY         -1.8860   -5.0230   -2.6880 H         1 SAP1        0.0000
     45 O31        -3.4320   -5.2360   -4.0300 O.3       1 SAP1        0.0000
     46 C31        -4.4260   -6.0700   -4.2660 C.2       1 SAP1        0.0000
     47 O32        -4.9470   -6.8130   -3.4540 O.2       1 SAP1        0.0000
     48 C32        -4.8000   -5.9660   -5.7440 C.3       1 SAP1        0.0000
     49 H2X        -3.9180   -6.2720   -6.3420 H         1 SAP1        0.0000
     50 H2Y        -5.0300   -4.9020   -5.9620 H         1 SAP1        0.0000
     51 C23        -8.2350   -4.7720   -1.6840 C.3       1 SAP1        0.0000
     52 H3R        -8.4160   -4.8300   -2.7810 H         1 SAP1        0.0000
     53 H3S        -9.1910   -4.4560   -1.2030 H         1 SAP1        0.0000
     54 C24        -7.8400   -6.1550   -1.1380 C.3       1 SAP1        0.0000
     55 H4R        -7.5570   -6.0520   -0.0670 H         1 SAP1        0.0000
     56 H4S        -6.9220   -6.4910   -1.6730 H         1 SAP1        0.0000
     57 C25        -8.9640   -7.1540   -1.2700 C.2       1 SAP1        0.0000
     58 H5R        -9.7790   -7.0380   -0.5390 H         1 SAP1        0.0000
     59 C26        -9.0400   -8.1490   -2.1760 C.2       1 SAP1        0.0000
     60 H6R        -9.9120   -8.8200   -2.1620 H         1 SAP1        0.0000
     61 C27        -8.0290   -8.4450   -3.2570 C.3       1 SAP1        0.0000
     62 H7R        -7.5880   -7.4950   -3.6290 H         1 SAP1        0.0000
     63 H7S        -8.5480   -8.8860   -4.1360 H         1 SAP1        0.0000
     64 C28        -6.9020   -9.3300   -2.7820 C.2       1 SAP1        0.0000
     65 H8R        -6.1520   -8.8180   -2.1550 H         1 SAP1        0.0000
     66 C29        -6.7140  -10.6260   -3.0980 C.2       1 SAP1        0.0000
     67 H9R        -5.8390  -11.1490   -2.6820 H         1 SAP1        0.0000
     68 C210       -7.6180  -11.4690   -3.9630 C.3       1 SAP1        0.0000
     69 H10R       -8.6770  -11.2000   -3.7580 H         1 SAP1        0.0000
     70 H10S       -7.5180  -12.5330   -3.6540 H         1 SAP1        0.0000
     71 C211       -7.2960  -11.3460   -5.4360 C.2       1 SAP1        0.0000
     72 H11R       -6.2210  -11.2910   -5.6720 H         1 SAP1        0.0000
     73 C212       -8.1770  -11.2800   -6.4540 C.2       1 SAP1        0.0000
     74 H12R       -7.7840  -11.1840   -7.4790 H         1 SAP1        0.0000
     75 C213       -9.6840  -11.3220   -6.3670 C.3       1 SAP1        0.0000
     76 H13R      -10.0250  -11.5140   -5.3270 H         1 SAP1        0.0000
     77 H13S      -10.0490  -12.1890   -6.9570 H         1 SAP1        0.0000
     78 C214      -10.2970  -10.0250   -6.8400 C.2       1 SAP1        0.0000
     79 H14R       -9.8150   -9.1160   -6.4450 H         1 SAP1        0.0000
     80 C215      -11.3560   -9.8810   -7.6620 C.2       1 SAP1        0.0000
     81 H15R      -11.6990   -8.8630   -7.9050 H         1 SAP1        0.0000
     82 C216      -12.1680  -10.9870   -8.2920 C.3       1 SAP1        0.0000
     83 H16R      -11.5960  -11.9380   -8.3470 H         1 SAP1        0.0000
     84 H16S      -12.4280  -10.7190   -9.3400 H         1 SAP1        0.0000
     85 C217      -13.4700  -11.2400   -7.5080 C.3       1 SAP1        0.0000
     86 H17R      -14.0660  -10.2990   -7.4830 H         1 SAP1        0.0000
     87 H17S      -13.2290  -11.5140   -6.4560 H         1 SAP1        0.0000
     88 C218      -14.3490  -12.3470   -8.1140 C.3       1 SAP1        0.0000
     89 H18R      -14.5110  -12.1430   -9.1950 H         1 SAP1        0.0000
     90 H18S      -15.3440  -12.3160   -7.6130 H         1 SAP1        0.0000
     91 C219      -13.7720  -13.7590   -7.9360 C.3       1 SAP1        0.0000
     92 H19R      -13.5700  -13.9270   -6.8530 H         1 SAP1        0.0000
     93 H19S      -12.7990  -13.8300   -8.4710 H         1 SAP1        0.0000
     94 C220      -14.7050  -14.8610   -8.4470 C.3       1 SAP1        0.0000
     95 H20R      -14.8890  -14.7400   -9.5360 H         1 SAP1        0.0000
     96 H20S      -15.6810  -14.8170   -7.9180 H         1 SAP1        0.0000
     97 H20T      -14.2580  -15.8640   -8.2740 H         1 SAP1        0.0000
     98 C33        -6.0130   -6.8500   -6.0840 C.3       1 SAP1        0.0000
     99 H3X        -6.9040   -6.4790   -5.5280 H         1 SAP1        0.0000
    100 H3Y        -5.8240   -7.8980   -5.7530 H         1 SAP1        0.0000
    101 C34        -6.3390   -6.8700   -7.5810 C.3       1 SAP1        0.0000
    102 H4X        -5.4670   -7.2720   -8.1420 H         1 SAP1        0.0000
    103 H4Y        -6.5280   -5.8320   -7.9380 H         1 SAP1        0.0000
    104 C35        -7.5770   -7.7300   -7.8480 C.3       1 SAP1        0.0000
    105 H5X        -8.4390   -7.2640   -7.3190 H         1 SAP1        0.0000
    106 H5Y        -7.4190   -8.7370   -7.4040 H         1 SAP1        0.0000
    107 C36        -7.9380   -7.8930   -9.3290 C.3       1 SAP1        0.0000
    108 H6X        -7.9700   -6.8990   -9.8270 H         1 SAP1        0.0000
    109 H6Y        -8.9680   -8.3130   -9.3540 H         1 SAP1        0.0000
    110 C37        -6.9930   -8.8360  -10.0930 C.3       1 SAP1        0.0000
    111 H7X        -6.8670   -9.7760   -9.5100 H         1 SAP1        0.0000
    112 H7Y        -5.9930   -8.3550  -10.1760 H         1 SAP1        0.0000
    113 C38        -7.4960   -9.2030  -11.5000 C.3       1 SAP1        0.0000
    114 H8X        -6.7210   -9.8220  -12.0080 H         1 SAP1        0.0000
    115 H8Y        -7.6290   -8.2730  -12.0940 H         1 SAP1        0.0000
    116 C39        -8.8150   -9.9920  -11.4840 C.3       1 SAP1        0.0000
    117 H9X        -9.6070   -9.3970  -10.9790 H         1 SAP1        0.0000
    118 H9Y        -8.6720  -10.9260  -10.8950 H         1 SAP1        0.0000
    119 C310       -9.3310  -10.3470  -12.8830 C.3       1 SAP1        0.0000
    120 H10X       -8.5890  -11.0000  -13.3940 H         1 SAP1        0.0000
    121 H10Y       -9.4420   -9.4190  -13.4850 H         1 SAP1        0.0000
    122 C311      -10.6830  -11.0700  -12.8150 C.3       1 SAP1        0.0000
    123 H11X      -11.4330  -10.4100  -12.3240 H         1 SAP1        0.0000
    124 H11Y      -10.5510  -11.9670  -12.1700 H         1 SAP1        0.0000
    125 C312      -11.2030  -11.4910  -14.1960 C.3       1 SAP1        0.0000
    126 H12X      -10.4050  -12.0790  -14.7060 H         1 SAP1        0.0000
    127 H12Y      -11.3940  -10.5820  -14.8090 H         1 SAP1        0.0000
    128 C313      -12.4750  -12.3550  -14.1490 C.3       1 SAP1        0.0000
    129 H13X      -12.7090  -12.6770  -15.1890 H         1 SAP1        0.0000
    130 H13Y      -13.3350  -11.7530  -13.7800 H         1 SAP1        0.0000
    131 C314      -12.3100  -13.6020  -13.2670 C.3       1 SAP1        0.0000
    132 H14X      -12.4050  -13.3120  -12.1970 H         1 SAP1        0.0000
    133 H14Y      -11.2800  -13.9940  -13.4220 H         1 SAP1        0.0000
    134 C315      -13.3120  -14.7220  -13.5780 C.3       1 SAP1        0.0000
    135 H15X      -13.1660  -15.0620  -14.6270 H         1 SAP1        0.0000
    136 H15Y      -14.3450  -14.3140  -13.4960 H         1 SAP1        0.0000
    137 C316      -13.1790  -15.9290  -12.6330 C.3       1 SAP1        0.0000
    138 H16X      -13.9840  -16.6620  -12.8680 H         1 SAP1        0.0000
    139 H16Y      -13.3330  -15.5850  -11.5860 H         1 SAP1        0.0000
    140 C317      -11.8240  -16.6480  -12.7260 C.3       1 SAP1        0.0000
    141 H17X      -11.0050  -15.9240  -12.5130 H         1 SAP1        0.0000
    142 H17Y      -11.6830  -17.0130  -13.7690 H         1 SAP1        0.0000
    143 C318      -11.6900  -17.8230  -11.7530 C.3       1 SAP1        0.0000
    144 H18X      -12.4790  -18.5810  -11.9440 H         1 SAP1        0.0000
    145 H18Y      -11.7880  -17.4690  -10.7040 H         1 SAP1        0.0000
    146 H18Z      -10.6970  -18.3100  -11.8670 H         1 SAP1        0.0000
@<TRIPOS>BOND
     1  129  128 1 
     2  127  125 1 
     3  126  125 1 
     4  135  134 1 
     5  125  128 1 
     6  125  122 1 
     7  128  130 1 
     8  128  131 1 
     9  142  140 1 
    10  134  136 1 
    11  134  131 1 
    12  134  137 1 
    13  121  119 1 
    14  133  131 1 
    15  120  119 1 
    16  131  132 1 
    17  119  122 1 
    18  119  116 1 
    19  138  137 1 
    20  122  123 1 
    21  122  124 1 
    22  140  137 1 
    23  140  141 1 
    24  140  143 1 
    25  137  139 1 
    26  115  113 1 
    27  114  113 1 
    28  144  143 1 
    29  146  143 1 
    30  143  145 1 
    31  113  116 1 
    32  113  110 1 
    33  116  117 1 
    34  116  118 1 
    35  112  110 1 
    36  110  111 1 
    37  110  107 1 
    38  108  107 1 
    39   95   94 1 
    40  109  107 1 
    41   84   82 1 
    42  107  104 1 
    43   89   88 1 
    44   93   91 1 
    45   94   97 1 
    46   94   91 1 
    47   94   96 1 
    48   83   82 1 
    49   82   80 1 
    50   82   85 1 
    51  102  101 1 
    52   88   91 1 
    53   88   90 1 
    54   88   85 1 
    55  103  101 1 
    56   91   92 1 
    57   81   80 1 
    58  104  101 1 
    59  104  106 1 
    60  104  105 1 
    61   80   78 2 
    62  101   98 1 
    63   85   86 1 
    64   85   87 1 
    65   74   73 1 
    66   77   75 1 
    67   78   79 1 
    68   78   75 1 
    69   73   75 1 
    70   73   71 2 
    71   75   76 1 
    72   49   48 1 
    73   98  100 1 
    74   98   48 1 
    75   98   99 1 
    76   50   48 1 
    77   48   46 1 
    78   72   71 1 
    79   71   68 1 
    80   46   45 1 
    81   46   47 2 
    82   63   61 1 
    83   45   42 1 
    84   68   69 1 
    85   68   70 1 
    86   68   66 1 
    87   62   61 1 
    88   38   37 2 
    89   61   64 1 
    90   61   59 1 
    91   66   64 2 
    92   66   67 1 
    93   64   65 1 
    94   52   51 1 
    95   44   42 1 
    96   42   43 1 
    97   42   34 1 
    98   35   34 1 
    99   28   26 2 
   100   27   26 1 
   101   37   36 1 
   102   37   39 1 
   103   59   60 1 
   104   59   57 2 
   105   34   36 1 
   106   34   31 1 
   107   51   39 1 
   108   51   53 1 
   109   51   54 1 
   110   56   54 1 
   111   40   39 1 
   112   26   30 1 
   113   26   29 1 
   114   39   41 1 
   115   57   54 1 
   116   57   58 1 
   117   54   55 1 
   118   30   31 1 
   119    6    5 1 
   120   25   24 1 
   121    2    1 1 
   122   31   32 1 
   123   31   33 1 
   124   29   24 1 
   125    5    7 1 
   126    5    1 1 
   127    5    9 1 
   128   24    1 1 
   129   24   20 1 
   130    7    8 1 
   131    1    3 1 
   132   23   22 1 
   133   11    9 1 
   134   11   12 1 
   135   17   16 1 
   136   22   20 1 
   137    9   16 1 
   138    9   10 1 
   139   20   16 1 
   140   20   21 1 
   141    3    4 1 
   142   13   12 2 
   143   16   18 1 
   144   15   12 1 
   145   12   14 1 
   146   18   19 1 
