@<TRIPOS>MOLECULE
C:\Users\Praveer\PycharmProjects\pdb_to_mol2_converter\data\pdb\sapi15.pdb
  146   146     0     0     0
SMALL
GASTEIGER

@<TRIPOS>ATOM
      1 C12         1.5120    0.0470    0.0650 C.3       1 SAP1        0.0000
      2 H2          1.9680   -0.4900   -0.8060 H         1 SAP1        0.0000
      3 O2          1.9710   -0.5990    1.2560 O.3       1 SAP1        0.0000
      4 HO2         1.3100   -0.4410    1.9510 H         1 SAP1        0.0000
      5 C13         2.0070    1.4710    0.0130 C.3       1 SAP1        0.0000
      6 H3          1.6680    1.9210   -0.9520 H         1 SAP1        0.0000
      7 O3          3.4360    1.4910    0.0320 O.3       1 SAP1        0.0000
      8 HO3         3.6590    0.8800    0.7460 H         1 SAP1        0.0000
      9 C14         1.4030    2.3050    1.1350 C.3       1 SAP1        0.0000
     10 H4          1.8920    1.9570    2.0840 H         1 SAP1        0.0000
     11 O4          1.6840    3.6930    1.0010 O.3       1 SAP1        0.0000
     12 HO4         1.1810    4.0610    1.7430 H         1 SAP1        0.0000
     13 C15        -0.0960    2.1270    1.3340 C.3       1 SAP1        0.0000
     14 H5         -0.5670    2.7110    0.5000 H         1 SAP1        0.0000
     15 O5         -0.4610    2.8080    2.5400 O.3       1 SAP1        0.0000
     16 P5         -0.7980    2.0460    3.9520 P.3       1 SAP1        0.0000
     17 OP52        0.3780    1.0980    4.1650 O.3       1 SAP1        0.0000
     18 OP53       -2.1170    1.3310    3.6820 O.2       1 SAP1        0.0000
     19 OP54       -0.8960    3.1590    4.9860 O.3       1 SAP1        0.0000
     20 C16        -0.6370    0.7070    1.1210 C.3       1 SAP1        0.0000
     21 H6         -0.3920    0.0720    2.0050 H         1 SAP1        0.0000
     22 O6         -2.0520    0.7690    1.0520 O.3       1 SAP1        0.0000
     23 HO6        -2.2730    0.9880    1.9930 H         1 SAP1        0.0000
     24 C11         0.0030    0.0030   -0.0700 C.3       1 SAP1        0.0000
     25 H1         -0.3080    0.5850   -0.9750 H         1 SAP1        0.0000
     26 P          -0.4280   -2.1610   -1.6050 P.3       1 SAP1        0.0000
     27 O13         0.9540   -2.4980   -2.0120 O.3       1 SAP1        0.0000
     28 O14        -1.2630   -1.4500   -2.5980 O.2       1 SAP1        0.0000
     29 O12        -0.4330   -1.3590   -0.1650 O.3       1 SAP1        0.0000
     30 O11        -1.1750   -3.5030   -1.2030 O.3       1 SAP1        0.0000
     31 C1         -2.5380   -3.4740   -0.7680 C.3       1 SAP1        0.0000
     32 HA         -2.8400   -2.4930   -0.3230 H         1 SAP1        0.0000
     33 HB         -2.6640   -4.2420    0.0270 H         1 SAP1        0.0000
     34 C2         -3.4960   -3.8190   -1.9370 C.3       1 SAP1        0.0000
     35 HS         -3.4490   -2.9680   -2.6610 H         1 SAP1        0.0000
     36 O21        -4.8110   -3.9730   -1.3650 O.3       1 SAP1        0.0000
     37 C21        -5.8380   -3.7570   -2.1650 C.2       1 SAP1        0.0000
     38 O22        -5.7950   -3.5590   -3.3660 O.2       1 SAP1        0.0000
     39 C22        -7.1250   -3.6790   -1.3330 C.3       1 SAP1        0.0000
     40 H2R        -7.5590   -2.6790   -1.5450 H         1 SAP1        0.0000
     41 H2S        -6.8770   -3.7240   -0.2540 H         1 SAP1        0.0000
     42 C3         -3.0090   -5.1120   -2.6630 C.3       1 SAP1        0.0000
     43 HX         -3.2580   -5.9970   -2.0320 H         1 SAP1        0.0000
     44 HY         -1.9000   -5.0680   -2.7160 H         1 SAP1        0.0000
     45 O31        -3.4800   -5.1990   -4.0230 O.3       1 SAP1        0.0000
     46 C31        -4.4560   -6.0520   -4.2610 C.2       1 SAP1        0.0000
     47 O32        -4.9600   -6.8110   -3.4480 O.2       1 SAP1        0.0000
     48 C32        -4.8330   -5.9560   -5.7380 C.3       1 SAP1        0.0000
     49 H2X        -3.9450   -6.2480   -6.3350 H         1 SAP1        0.0000
     50 H2Y        -5.0790   -4.8960   -5.9590 H         1 SAP1        0.0000
     51 C23        -8.1720   -4.7590   -1.6970 C.3       1 SAP1        0.0000
     52 H3R        -8.3140   -4.8080   -2.8000 H         1 SAP1        0.0000
     53 H3S        -9.1430   -4.4420   -1.2490 H         1 SAP1        0.0000
     54 C24        -7.8080   -6.1510   -1.1480 C.3       1 SAP1        0.0000
     55 H4R        -7.5350   -6.0460   -0.0740 H         1 SAP1        0.0000
     56 H4S        -6.8880   -6.5010   -1.6710 H         1 SAP1        0.0000
     57 C25        -8.9410   -7.1420   -1.2770 C.2       1 SAP1        0.0000
     58 H5R        -9.7470   -7.0260   -0.5360 H         1 SAP1        0.0000
     59 C26        -9.0310   -8.1400   -2.1810 C.2       1 SAP1        0.0000
     60 H6R        -9.9070   -8.8050   -2.1540 H         1 SAP1        0.0000
     61 C27        -8.0350   -8.4480   -3.2720 C.3       1 SAP1        0.0000
     62 H7R        -7.5970   -7.5010   -3.6560 H         1 SAP1        0.0000
     63 H7S        -8.5670   -8.8950   -4.1410 H         1 SAP1        0.0000
     64 C28        -6.9030   -9.3310   -2.8060 C.2       1 SAP1        0.0000
     65 H8R        -6.1460   -8.8140   -2.1920 H         1 SAP1        0.0000
     66 C29        -6.7200  -10.6300   -3.1110 C.2       1 SAP1        0.0000
     67 H9R        -5.8380  -11.1490   -2.7040 H         1 SAP1        0.0000
     68 C210       -7.6310  -11.4820   -3.9610 C.3       1 SAP1        0.0000
     69 H10R       -8.6880  -11.2020   -3.7610 H         1 SAP1        0.0000
     70 H10S       -7.5380  -12.5420   -3.6370 H         1 SAP1        0.0000
     71 C211       -7.3030  -11.3780   -5.4340 C.2       1 SAP1        0.0000
     72 H11R       -6.2270  -11.3360   -5.6660 H         1 SAP1        0.0000
     73 C212       -8.1800  -11.3150   -6.4570 C.2       1 SAP1        0.0000
     74 H12R       -7.7820  -11.2320   -7.4810 H         1 SAP1        0.0000
     75 C213       -9.6870  -11.3450   -6.3710 C.3       1 SAP1        0.0000
     76 H13R      -10.0320  -11.5350   -5.3320 H         1 SAP1        0.0000
     77 H13S      -10.0550  -12.2110   -6.9610 H         1 SAP1        0.0000
     78 C214      -10.2930  -10.0440   -6.8430 C.2       1 SAP1        0.0000
     79 H14R       -9.8060   -9.1370   -6.4480 H         1 SAP1        0.0000
     80 C215      -11.3520   -9.8950   -7.6630 C.2       1 SAP1        0.0000
     81 H15R      -11.6920   -8.8760   -7.9080 H         1 SAP1        0.0000
     82 C216      -12.1690  -10.9980   -8.2910 C.3       1 SAP1        0.0000
     83 H16R      -11.6060  -11.9550   -8.3280 H         1 SAP1        0.0000
     84 H16S      -12.4130  -10.7410   -9.3460 H         1 SAP1        0.0000
     85 C217      -13.4830  -11.2290   -7.5200 C.3       1 SAP1        0.0000
     86 H17R      -14.0730  -10.2840   -7.5160 H         1 SAP1        0.0000
     87 H17S      -13.2550  -11.4890   -6.4610 H         1 SAP1        0.0000
     88 C218      -14.3620  -12.3420   -8.1170 C.3       1 SAP1        0.0000
     89 H18R      -14.5380  -12.1360   -9.1950 H         1 SAP1        0.0000
     90 H18S      -15.3500  -12.3210   -7.6040 H         1 SAP1        0.0000
     91 C219      -13.7670  -13.7490   -7.9520 C.3       1 SAP1        0.0000
     92 H19R      -13.5620  -13.9200   -6.8700 H         1 SAP1        0.0000
     93 H19S      -12.7940  -13.8040   -8.4880 H         1 SAP1        0.0000
     94 C220      -14.6830  -14.8620   -8.4690 C.3       1 SAP1        0.0000
     95 H20R      -14.8710  -14.7360   -9.5570 H         1 SAP1        0.0000
     96 H20S      -15.6590  -14.8400   -7.9390 H         1 SAP1        0.0000
     97 H20T      -14.2160  -15.8570   -8.3050 H         1 SAP1        0.0000
     98 C33        -6.0300   -6.8590   -6.0870 C.3       1 SAP1        0.0000
     99 H3X        -6.9330   -6.4850   -5.5530 H         1 SAP1        0.0000
    100 H3Y        -5.8420   -7.8990   -5.7320 H         1 SAP1        0.0000
    101 C34        -6.3280   -6.9090   -7.5890 C.3       1 SAP1        0.0000
    102 H4X        -5.4680   -7.3760   -8.1190 H         1 SAP1        0.0000
    103 H4Y        -6.4580   -5.8760   -7.9820 H         1 SAP1        0.0000
    104 C35        -7.6050   -7.7130   -7.8460 C.3       1 SAP1        0.0000
    105 H5X        -8.4480   -7.1960   -7.3320 H         1 SAP1        0.0000
    106 H5Y        -7.4950   -8.7170   -7.3790 H         1 SAP1        0.0000
    107 C36        -7.9700   -7.8870   -9.3260 C.3       1 SAP1        0.0000
    108 H6X        -8.0250   -6.8970   -9.8270 H         1 SAP1        0.0000
    109 H6Y        -8.9920   -8.3260   -9.3380 H         1 SAP1        0.0000
    110 C37        -7.0120   -8.8090  -10.0980 C.3       1 SAP1        0.0000
    111 H7X        -6.8570   -9.7430   -9.5120 H         1 SAP1        0.0000
    112 H7Y        -6.0250   -8.3050  -10.2000 H         1 SAP1        0.0000
    113 C38        -7.5210   -9.1920  -11.4990 C.3       1 SAP1        0.0000
    114 H8X        -6.7490   -9.8190  -12.0010 H         1 SAP1        0.0000
    115 H8Y        -7.6550   -8.2690  -12.1070 H         1 SAP1        0.0000
    116 C39        -8.8420   -9.9760  -11.4740 C.3       1 SAP1        0.0000
    117 H9X        -9.6360   -9.3710  -10.9850 H         1 SAP1        0.0000
    118 H9Y        -8.7070  -10.9020  -10.8720 H         1 SAP1        0.0000
    119 C310       -9.3490  -10.3440  -12.8720 C.3       1 SAP1        0.0000
    120 H10X       -8.5940  -10.9840  -13.3790 H         1 SAP1        0.0000
    121 H10Y       -9.4690   -9.4170  -13.4760 H         1 SAP1        0.0000
    122 C311      -10.6900  -11.0870  -12.8150 C.3       1 SAP1        0.0000
    123 H11X      -11.4500  -10.4490  -12.3110 H         1 SAP1        0.0000
    124 H11Y      -10.5400  -11.9910  -12.1850 H         1 SAP1        0.0000
    125 C312      -11.1990  -11.4910  -14.2060 C.3       1 SAP1        0.0000
    126 H12X      -10.3860  -12.0530  -14.7220 H         1 SAP1        0.0000
    127 H12Y      -11.4060  -10.5730  -14.8010 H         1 SAP1        0.0000
    128 C313      -12.4570  -12.3770  -14.1850 C.3       1 SAP1        0.0000
    129 H13X      -12.6660  -12.6990  -15.2300 H         1 SAP1        0.0000
    130 H13Y      -13.3330  -11.7900  -13.8260 H         1 SAP1        0.0000
    131 C314      -12.2840  -13.6220  -13.3020 C.3       1 SAP1        0.0000
    132 H14X      -12.3440  -13.3240  -12.2310 H         1 SAP1        0.0000
    133 H14Y      -11.2670  -14.0350  -13.4840 H         1 SAP1        0.0000
    134 C315      -13.3180  -14.7240  -13.5650 C.3       1 SAP1        0.0000
    135 H15X      -13.2120  -15.0840  -14.6110 H         1 SAP1        0.0000
    136 H15Y      -14.3390  -14.2930  -13.4590 H         1 SAP1        0.0000
    137 C316      -13.1810  -15.9180  -12.6030 C.3       1 SAP1        0.0000
    138 H16X      -13.9960  -16.6460  -12.8150 H         1 SAP1        0.0000
    139 H16Y      -13.3170  -15.5560  -11.5590 H         1 SAP1        0.0000
    140 C317      -11.8310  -16.6450  -12.7030 C.3       1 SAP1        0.0000
    141 H17X      -11.0090  -15.9330  -12.4670 H         1 SAP1        0.0000
    142 H17Y      -11.6860  -16.9860  -13.7540 H         1 SAP1        0.0000
    143 C318      -11.7160  -17.8460  -11.7610 C.3       1 SAP1        0.0000
    144 H18X      -12.5080  -18.5930  -11.9810 H         1 SAP1        0.0000
    145 H18Y      -11.8220  -17.5200  -10.7030 H         1 SAP1        0.0000
    146 H18Z      -10.7260  -18.3380  -11.8780 H         1 SAP1        0.0000
@<TRIPOS>BOND
     1  129  128 1 
     2  127  125 1 
     3  126  125 1 
     4  135  134 1 
     5  125  128 1 
     6  125  122 1 
     7  128  130 1 
     8  128  131 1 
     9  142  140 1 
    10  134  136 1 
    11  134  131 1 
    12  134  137 1 
    13  133  131 1 
    14  121  119 1 
    15  120  119 1 
    16  131  132 1 
    17  119  122 1 
    18  119  116 1 
    19  122  123 1 
    20  122  124 1 
    21  138  137 1 
    22  140  137 1 
    23  140  141 1 
    24  140  143 1 
    25  137  139 1 
    26  115  113 1 
    27  114  113 1 
    28  144  143 1 
    29  146  143 1 
    30  143  145 1 
    31  113  116 1 
    32  113  110 1 
    33  116  117 1 
    34  116  118 1 
    35  112  110 1 
    36  110  111 1 
    37  110  107 1 
    38  108  107 1 
    39   95   94 1 
    40   84   82 1 
    41  109  107 1 
    42  107  104 1 
    43   89   88 1 
    44   93   91 1 
    45   94   97 1 
    46   94   91 1 
    47   94   96 1 
    48   83   82 1 
    49   82   80 1 
    50   82   85 1 
    51  102  101 1 
    52   88   91 1 
    53   88   90 1 
    54   88   85 1 
    55  103  101 1 
    56   91   92 1 
    57   81   80 1 
    58  104  101 1 
    59  104  106 1 
    60  104  105 1 
    61   80   78 2 
    62  101   98 1 
    63   85   86 1 
    64   85   87 1 
    65   74   73 1 
    66   77   75 1 
    67   78   79 1 
    68   78   75 1 
    69   73   75 1 
    70   73   71 2 
    71   75   76 1 
    72   49   48 1 
    73   98   48 1 
    74   98  100 1 
    75   98   99 1 
    76   50   48 1 
    77   48   46 1 
    78   72   71 1 
    79   71   68 1 
    80   46   45 1 
    81   46   47 2 
    82   63   61 1 
    83   45   42 1 
    84   68   69 1 
    85   68   70 1 
    86   68   66 1 
    87   62   61 1 
    88   38   37 2 
    89   61   64 1 
    90   61   59 1 
    91   66   64 2 
    92   66   67 1 
    93   64   65 1 
    94   52   51 1 
    95   44   42 1 
    96   42   43 1 
    97   42   34 1 
    98   35   34 1 
    99   28   26 2 
   100   59   60 1 
   101   59   57 2 
   102   37   36 1 
   103   37   39 1 
   104   27   26 1 
   105   34   36 1 
   106   34   31 1 
   107   51   39 1 
   108   51   53 1 
   109   51   54 1 
   110   56   54 1 
   111   26   30 1 
   112   26   29 1 
   113   40   39 1 
   114   39   41 1 
   115   57   54 1 
   116   57   58 1 
   117   30   31 1 
   118   54   55 1 
   119   25   24 1 
   120    6    5 1 
   121    2    1 1 
   122   31   32 1 
   123   31   33 1 
   124   29   24 1 
   125   24    1 1 
   126   24   20 1 
   127    5    7 1 
   128    5    1 1 
   129    5    9 1 
   130    7    8 1 
   131    1    3 1 
   132   14   13 1 
   133   11    9 1 
   134   11   12 1 
   135   22   20 1 
   136   22   23 1 
   137   20   13 1 
   138   20   21 1 
   139    9   13 1 
   140    9   10 1 
   141    3    4 1 
   142   13   15 1 
   143   15   16 1 
   144   18   16 2 
   145   16   17 1 
   146   16   19 1 
