@<TRIPOS>MOLECULE
C:\Users\Praveer\PycharmProjects\pdb_to_mol2_converter\data\pdb\sapi.pdb
  143   143     0     0     0
SMALL
GASTEIGER

@<TRIPOS>ATOM
      1 C12         1.5770    0.0480   -0.0090 C.3       1 SAP1        0.0000
      2 H2          1.8530   -0.5520   -0.9110 H         1 SAP1        0.0000
      3 O2          2.2590   -0.5200    1.1090 O.3       1 SAP1        0.0000
      4 HO2         1.9080   -1.4250    1.2660 H         1 SAP1        0.0000
      5 C13         2.0230    1.4820   -0.2420 C.3       1 SAP1        0.0000
      6 H3          1.5000    1.8770   -1.1440 H         1 SAP1        0.0000
      7 O3          3.4210    1.5300   -0.5210 O.3       1 SAP1        0.0000
      8 HO3         3.8500    1.0670    0.2070 H         1 SAP1        0.0000
      9 C14         1.6190    2.3560    0.9450 C.3       1 SAP1        0.0000
     10 H4          2.1280    1.9530    1.8540 H         1 SAP1        0.0000
     11 O4          2.0300    3.7160    0.8160 O.3       1 SAP1        0.0000
     12 HO4         1.5930    4.1870    1.5370 H         1 SAP1        0.0000
     13 C15         0.1190    2.2900    1.1790 C.3       1 SAP1        0.0000
     14 H5         -0.3680    2.7320    0.2740 H         1 SAP1        0.0000
     15 O5         -0.2890    3.0800    2.2970 O.3       1 SAP1        0.0000
     16 HO5        -1.1930    2.7900    2.4850 H         1 SAP1        0.0000
     17 C16        -0.3890    0.8620    1.3160 C.3       1 SAP1        0.0000
     18 H6          0.0400    0.4630    2.2680 H         1 SAP1        0.0000
     19 O6         -1.8090    0.8490    1.4260 O.3       1 SAP1        0.0000
     20 HO6        -2.0160   -0.0360    1.7810 H         1 SAP1        0.0000
     21 C11         0.0630   -0.0070    0.1480 C.3       1 SAP1        0.0000
     22 H1         -0.3480    0.4870   -0.7680 H         1 SAP1        0.0000
     23 P          -0.4610   -2.3630    1.3920 P.3       1 SAP1        0.0000
     24 O13        -1.1880   -1.6890    2.4900 O.3       1 SAP1        0.0000
     25 O14         0.9320   -2.7960    1.6430 O.2       1 SAP1        0.0000
     26 O12        -0.4340   -1.3530    0.0930 O.3       1 SAP1        0.0000
     27 O11        -1.3410   -3.6050    0.9090 O.3       1 SAP1        0.0000
     28 C1         -1.6930   -4.5580    1.9300 C.3       1 SAP1        0.0000
     29 HA         -1.8630   -4.0780    2.9280 H         1 SAP1        0.0000
     30 HB         -0.8690   -5.3010    2.0400 H         1 SAP1        0.0000
     31 C2         -2.9990   -5.3300    1.5900 C.3       1 SAP1        0.0000
     32 HS         -3.8540   -4.6130    1.5890 H         1 SAP1        0.0000
     33 O21        -3.1710   -6.3710    2.5720 O.3       1 SAP1        0.0000
     34 C21        -3.6120   -5.9400    3.7470 C.2       1 SAP1        0.0000
     35 O22        -4.0770   -4.8440    3.9800 O.2       1 SAP1        0.0000
     36 C22        -3.3980   -7.0290    4.7980 C.3       1 SAP1        0.0000
     37 H2R        -2.9130   -6.5410    5.6700 H         1 SAP1        0.0000
     38 H2S        -2.7100   -7.8010    4.3980 H         1 SAP1        0.0000
     39 C3         -2.9510   -5.9760    0.1770 C.3       1 SAP1        0.0000
     40 HX         -2.1430   -6.7440    0.1930 H         1 SAP1        0.0000
     41 HY         -2.6640   -5.1830   -0.5510 H         1 SAP1        0.0000
     42 O31        -4.2340   -6.5500   -0.1810 O.3       1 SAP1        0.0000
     43 C31        -4.1900   -7.2590   -1.3060 C.2       1 SAP1        0.0000
     44 O32        -3.1960   -7.4450   -1.9810 O.2       1 SAP1        0.0000
     45 C32        -5.5870   -7.8000   -1.6340 C.3       1 SAP1        0.0000
     46 H2X        -6.2720   -6.9350   -1.7570 H         1 SAP1        0.0000
     47 H2Y        -5.9360   -8.4140   -0.7790 H         1 SAP1        0.0000
     48 C23        -4.7330   -7.6620    5.2370 C.3       1 SAP1        0.0000
     49 H3R        -5.4300   -6.8660    5.5860 H         1 SAP1        0.0000
     50 H3S        -4.5320   -8.3390    6.1000 H         1 SAP1        0.0000
     51 C24        -5.3800   -8.4790    4.1060 C.3       1 SAP1        0.0000
     52 H4R        -4.6670   -9.2720    3.7880 H         1 SAP1        0.0000
     53 H4S        -5.5340   -7.8140    3.2260 H         1 SAP1        0.0000
     54 C25        -6.6900   -9.0910    4.5230 C.2       1 SAP1        0.0000
     55 H5R        -6.9700   -8.9600    5.5810 H         1 SAP1        0.0000
     56 C26        -7.5140   -9.7560    3.6950 C.2       1 SAP1        0.0000
     57 H6R        -8.4540  -10.1700    4.0940 H         1 SAP1        0.0000
     58 C27        -7.2680  -10.0170    2.2280 C.3       1 SAP1        0.0000
     59 H7R        -6.4070   -9.4240    1.8490 H         1 SAP1        0.0000
     60 H7S        -8.1450   -9.6520    1.6540 H         1 SAP1        0.0000
     61 C28        -6.9880  -11.4800    1.9830 C.2       1 SAP1        0.0000
     62 H8R        -6.2080  -11.9130    2.6310 H         1 SAP1        0.0000
     63 C29        -7.5950  -12.2840    1.0860 C.2       1 SAP1        0.0000
     64 H9R        -7.2830  -13.3400    1.0330 H         1 SAP1        0.0000
     65 C210       -8.6760  -11.8920    0.1070 C.3       1 SAP1        0.0000
     66 H10R       -8.8230  -10.7920    0.0700 H         1 SAP1        0.0000
     67 H10S       -9.6410  -12.3070    0.4690 H         1 SAP1        0.0000
     68 C211       -8.3360  -12.3630   -1.2860 C.2       1 SAP1        0.0000
     69 H11R       -7.3860  -11.9680   -1.6830 H         1 SAP1        0.0000
     70 C212       -9.0560  -13.1900   -2.0710 C.2       1 SAP1        0.0000
     71 H12R       -8.6630  -13.4190   -3.0760 H         1 SAP1        0.0000
     72 C213      -10.3890  -13.8240   -1.7500 C.3       1 SAP1        0.0000
     73 H13R      -10.7290  -13.6030   -0.7160 H         1 SAP1        0.0000
     74 H13S      -10.2810  -14.9300   -1.7810 H         1 SAP1        0.0000
     75 C214      -11.4480  -13.3380   -2.7130 C.2       1 SAP1        0.0000
     76 H14R      -11.7720  -12.2960   -2.5580 H         1 SAP1        0.0000
     77 C215      -11.9930  -14.0480   -3.7160 C.2       1 SAP1        0.0000
     78 H15R      -12.7530  -13.5790   -4.3630 H         1 SAP1        0.0000
     79 C216      -11.6530  -15.4790   -4.0400 C.3       1 SAP1        0.0000
     80 H16R      -11.6440  -16.1050   -3.1180 H         1 SAP1        0.0000
     81 H16S      -10.6350  -15.5330   -4.4850 H         1 SAP1        0.0000
     82 C217      -12.6530  -16.1000   -5.0300 C.3       1 SAP1        0.0000
     83 H17R      -12.6600  -15.5100   -5.9740 H         1 SAP1        0.0000
     84 H17S      -13.6780  -16.0680   -4.5960 H         1 SAP1        0.0000
     85 C218      -12.3020  -17.5570   -5.3630 C.3       1 SAP1        0.0000
     86 H18R      -12.3120  -18.1580   -4.4260 H         1 SAP1        0.0000
     87 H18S      -11.2690  -17.5950   -5.7770 H         1 SAP1        0.0000
     88 C219      -13.2690  -18.1880   -6.3720 C.3       1 SAP1        0.0000
     89 H19R      -13.2630  -17.5800   -7.3060 H         1 SAP1        0.0000
     90 H19S      -14.3010  -18.1500   -5.9550 H         1 SAP1        0.0000
     91 C220      -12.9150  -19.6370   -6.7120 C.3       1 SAP1        0.0000
     92 H20R      -12.9360  -20.2670   -5.7960 H         1 SAP1        0.0000
     93 H20S      -11.8950  -19.6950   -7.1500 H         1 SAP1        0.0000
     94 H20T      -13.6360  -20.0580   -7.4440 H         1 SAP1        0.0000
     95 C33        -5.5660   -8.6480   -2.9270 C.3       1 SAP1        0.0000
     96 H3X        -4.9300   -9.5500   -2.7650 H         1 SAP1        0.0000
     97 H3Y        -5.1060   -8.0620   -3.7590 H         1 SAP1        0.0000
     98 C34        -6.9580   -9.1060   -3.3860 C.3       1 SAP1        0.0000
     99 H4X        -7.5660   -8.2140   -3.6570 H         1 SAP1        0.0000
    100 H4Y        -7.4790   -9.6410   -2.5610 H         1 SAP1        0.0000
    101 C35        -6.8680  -10.0500   -4.5930 C.3       1 SAP1        0.0000
    102 H5X        -6.2300  -10.9210   -4.3190 H         1 SAP1        0.0000
    103 H5Y        -6.3710   -9.5190   -5.4360 H         1 SAP1        0.0000
    104 C36        -8.2340  -10.5680   -5.0590 C.3       1 SAP1        0.0000
    105 H6X        -8.8600   -9.7080   -5.3870 H         1 SAP1        0.0000
    106 H6Y        -8.7510  -11.0710   -4.2090 H         1 SAP1        0.0000
    107 C37        -8.1050  -11.5570   -6.2230 C.3       1 SAP1        0.0000
    108 H7X        -7.4080  -12.3780   -5.9360 H         1 SAP1        0.0000
    109 H7Y        -7.6670  -11.0350   -7.1050 H         1 SAP1        0.0000
    110 C38        -9.4530  -12.1680   -6.6200 C.3       1 SAP1        0.0000
    111 H8X       -10.1720  -11.3540   -6.8670 H         1 SAP1        0.0000
    112 H8Y        -9.8680  -12.7330   -5.7540 H         1 SAP1        0.0000
    113 C39        -9.3180  -13.1050   -7.8230 C.3       1 SAP1        0.0000
    114 H9X        -8.5640  -13.8930   -7.5960 H         1 SAP1        0.0000
    115 H9Y        -8.9460  -12.5200   -8.6960 H         1 SAP1        0.0000
    116 C310      -10.6420  -13.7760   -8.1950 C.3       1 SAP1        0.0000
    117 H10X      -11.4180  -12.9940   -8.3590 H         1 SAP1        0.0000
    118 H10Y      -10.9830  -14.4250   -7.3560 H         1 SAP1        0.0000
    119 C311      -10.4980  -14.6140   -9.4660 C.3       1 SAP1        0.0000
    120 H11X       -9.7270  -15.4010   -9.3050 H         1 SAP1        0.0000
    121 H11Y      -10.1410  -13.9590  -10.2920 H         1 SAP1        0.0000
    122 C312      -11.8090  -15.2740   -9.8910 C.3       1 SAP1        0.0000
    123 H12X      -12.5850  -14.4900  -10.0410 H         1 SAP1        0.0000
    124 H12Y      -12.1650  -15.9470   -9.0800 H         1 SAP1        0.0000
    125 C313      -11.6390  -16.0730  -11.1860 C.3       1 SAP1        0.0000
    126 H13X      -10.8660  -16.8580  -11.0320 H         1 SAP1        0.0000
    127 H13Y      -11.2750  -15.3940  -11.9890 H         1 SAP1        0.0000
    128 C314      -12.9480  -16.7270  -11.6320 C.3       1 SAP1        0.0000
    129 H14X      -13.7150  -15.9340  -11.7850 H         1 SAP1        0.0000
    130 H14Y      -13.3110  -17.3980  -10.8200 H         1 SAP1        0.0000
    131 C315      -12.8000  -17.5380  -12.9230 C.3       1 SAP1        0.0000
    132 H15X      -12.0350  -18.3340  -12.7740 H         1 SAP1        0.0000
    133 H15Y      -12.4430  -16.8700  -13.7410 H         1 SAP1        0.0000
    134 C316      -14.1310  -18.1790  -13.3320 C.3       1 SAP1        0.0000
    135 H16X      -14.8930  -17.3790  -13.4800 H         1 SAP1        0.0000
    136 H16Y      -14.4890  -18.8360  -12.5060 H         1 SAP1        0.0000
    137 C317      -14.0270  -19.0090  -14.6140 C.3       1 SAP1        0.0000
    138 H17X      -13.2590  -19.8030  -14.4680 H         1 SAP1        0.0000
    139 H17Y      -13.6650  -18.3540  -15.4400 H         1 SAP1        0.0000
    140 C318      -15.3630  -19.6470  -15.0060 C.3       1 SAP1        0.0000
    141 H18X      -16.1340  -18.8620  -15.1710 H         1 SAP1        0.0000
    142 H18Y      -15.7260  -20.3150  -14.1940 H         1 SAP1        0.0000
    143 H18Z      -15.2560  -20.2430  -15.9380 H         1 SAP1        0.0000
@<TRIPOS>BOND
     1  143  140 1 
     2  139  137 1 
     3  141  140 1 
     4  140  137 1 
     5  140  142 1 
     6  137  138 1 
     7  137  134 1 
     8  133  131 1 
     9  135  134 1 
    10  134  131 1 
    11  134  136 1 
    12  131  132 1 
    13  131  128 1 
    14  127  125 1 
    15  129  128 1 
    16  128  125 1 
    17  128  130 1 
    18  125  126 1 
    19  125  122 1 
    20  121  119 1 
    21  123  122 1 
    22  122  119 1 
    23  122  124 1 
    24  119  120 1 
    25  119  116 1 
    26  115  113 1 
    27  117  116 1 
    28  116  113 1 
    29  116  118 1 
    30  113  114 1 
    31  113  110 1 
    32   94   91 1 
    33   89   88 1 
    34   93   91 1 
    35  109  107 1 
    36  111  110 1 
    37   91   88 1 
    38   91   92 1 
    39  110  107 1 
    40  110  112 1 
    41   88   90 1 
    42   88   85 1 
    43  107  108 1 
    44  107  104 1 
    45   83   82 1 
    46   87   85 1 
    47  103  101 1 
    48  105  104 1 
    49   85   82 1 
    50   85   86 1 
    51  104  101 1 
    52  104  106 1 
    53   82   84 1 
    54   82   79 1 
    55  101  102 1 
    56  101   98 1 
    57   81   79 1 
    58   78   77 1 
    59   79   77 1 
    60   79   80 1 
    61   97   95 1 
    62   77   75 2 
    63   99   98 1 
    64   98   95 1 
    65   98  100 1 
    66   71   70 1 
    67   95   96 1 
    68   95   45 1 
    69   75   76 1 
    70   75   72 1 
    71   70   72 1 
    72   70   68 2 
    73   44   43 2 
    74   74   72 1 
    75   46   45 1 
    76   72   73 1 
    77   69   68 1 
    78   45   43 1 
    79   45   47 1 
    80   43   42 1 
    81   68   65 1 
    82    6    5 1 
    83    2    1 1 
    84   22   21 1 
    85   41   39 1 
    86    7    5 1 
    87    7    8 1 
    88    5    1 1 
    89    5    9 1 
    90   42   39 1 
    91    1   21 1 
    92    1    3 1 
    93   66   65 1 
    94   26   21 1 
    95   26   23 1 
    96   65   67 1 
    97   65   63 1 
    98   21   17 1 
    99   39   40 1 
   100   39   31 1 
   101   14   13 1 
   102   11    9 1 
   103   11   12 1 
   104   27   23 1 
   105   27   28 1 
   106    9   13 1 
   107    9   10 1 
   108   64   63 1 
   109   63   61 2 
   110    3    4 1 
   111   13   17 1 
   112   13   15 1 
   113   17   19 1 
   114   17   18 1 
   115   23   25 2 
   116   23   24 1 
   117   19   20 1 
   118   32   31 1 
   119   31   28 1 
   120   31   33 1 
   121   60   58 1 
   122   59   58 1 
   123   28   30 1 
   124   28   29 1 
   125   61   58 1 
   126   61   62 1 
   127   58   56 1 
   128   15   16 1 
   129   33   34 1 
   130   53   51 1 
   131   56   57 1 
   132   56   54 2 
   133   34   35 2 
   134   34   36 1 
   135   52   51 1 
   136   51   54 1 
   137   51   48 1 
   138   38   36 1 
   139   54   55 1 
   140   36   48 1 
   141   36   37 1 
   142   48   49 1 
   143   48   50 1 
