@<TRIPOS>MOLECULE
C:\Users\Praveer\PycharmProjects\pdb_to_mol2_converter\data\pdb\sapi25.pdb
  150   150     0     0     0
SMALL
GASTEIGER

@<TRIPOS>ATOM
      1 C12         1.4260    0.0280    0.1570 C.3       1 SAP1        0.0000
      2 H2          1.8850   -0.5280   -0.6920 H         1 SAP1        0.0000
      3 O2          1.7440   -0.7070    1.3380 O.3       1 SAP1        0.0000
      4 HO2         2.5070   -0.2120    1.6640 H         1 SAP1        0.0000
      5 C13         2.0930    1.3850    0.2050 C.3       1 SAP1        0.0000
      6 H3          1.9240    1.8660   -0.7910 H         1 SAP1        0.0000
      7 O3          3.5040    1.2550    0.3480 O.3       1 SAP1        0.0000
      8 HO3         3.8320    2.1990    0.3150 H         1 SAP1        0.0000
      9 C14         1.5020    2.3500    1.2350 C.3       1 SAP1        0.0000
     10 H4          2.0020    2.0850    2.2010 H         1 SAP1        0.0000
     11 O4          1.7950    3.7220    0.9190 O.3       1 SAP1        0.0000
     12 P4          3.2910    4.4050    1.1450 P.3       1 SAP1        0.0000
     13 OP42        3.1360    5.8940    0.8610 O.3       1 SAP1        0.0000
     14 OP43        3.7190    4.0820    2.5710 O.3       1 SAP1        0.0000
     15 OP44        4.1850    3.7150    0.1190 O.2       1 SAP1        0.0000
     16 C15        -0.0220    2.1910    1.5180 C.3       1 SAP1        0.0000
     17 H5         -0.4570    2.9920    0.8600 H         1 SAP1        0.0000
     18 O5         -0.3030    2.4950    2.8970 O.3       1 SAP1        0.0000
     19 P5         -1.7050    3.1860    3.3970 P.3       1 SAP1        0.0000
     20 OP52       -1.9190    1.9960    4.4390 O.3       1 SAP1        0.0000
     21 HP52       -1.0270    1.6330    4.5290 H         1 SAP1        0.0000
     22 OP53       -2.7880    3.1160    2.3290 O.2       1 SAP1        0.0000
     23 OP54       -1.4980    4.4900    4.1420 O.3       1 SAP1        0.0000
     24 C16        -0.7370    0.9070    1.0170 C.3       1 SAP1        0.0000
     25 H6         -0.7060    0.2030    1.8870 H         1 SAP1        0.0000
     26 O6         -2.1160    1.1360    0.7270 O.3       1 SAP1        0.0000
     27 HO6        -2.4280    1.8630    1.3090 H         1 SAP1        0.0000
     28 C11        -0.0530    0.1590   -0.1120 C.3       1 SAP1        0.0000
     29 H1         -0.1840    0.8020   -1.0230 H         1 SAP1        0.0000
     30 P          -0.8400   -1.7730   -1.8240 P.3       1 SAP1        0.0000
     31 O13         0.4550   -1.8840   -2.5340 O.2       1 SAP1        0.0000
     32 O14        -1.9370   -1.0610   -2.5170 O.3       1 SAP1        0.0000
     33 O12        -0.6220   -1.1480   -0.3130 O.3       1 SAP1        0.0000
     34 O11        -1.3630   -3.2390   -1.5000 O.3       1 SAP1        0.0000
     35 C1         -2.3900   -3.4670   -0.5290 C.3       1 SAP1        0.0000
     36 HA         -2.7300   -2.5350   -0.0130 H         1 SAP1        0.0000
     37 HB         -1.9860   -4.1440    0.2530 H         1 SAP1        0.0000
     38 C2         -3.6390   -4.1410   -1.1580 C.3       1 SAP1        0.0000
     39 HS         -4.3760   -4.2830   -0.3330 H         1 SAP1        0.0000
     40 O21        -3.2260   -5.3880   -1.7510 O.3       1 SAP1        0.0000
     41 C21        -4.0640   -6.3920   -1.6460 C.2       1 SAP1        0.0000
     42 O22        -5.0850   -6.4140   -0.9910 O.2       1 SAP1        0.0000
     43 C22        -3.5410   -7.5430   -2.5180 C.3       1 SAP1        0.0000
     44 H2R        -2.5970   -7.9040   -2.0600 H         1 SAP1        0.0000
     45 H2S        -3.3100   -7.1340   -3.5240 H         1 SAP1        0.0000
     46 C3         -4.2870   -3.2050   -2.2210 C.3       1 SAP1        0.0000
     47 HX         -3.5640   -3.0570   -3.0590 H         1 SAP1        0.0000
     48 HY         -4.3970   -2.2050   -1.7430 H         1 SAP1        0.0000
     49 O31        -5.5980   -3.6500   -2.6560 O.3       1 SAP1        0.0000
     50 C31        -5.5990   -4.3790   -3.7620 C.2       1 SAP1        0.0000
     51 O32        -4.6210   -4.7590   -4.3750 O.2       1 SAP1        0.0000
     52 C32        -7.0360   -4.6850   -4.1860 C.3       1 SAP1        0.0000
     53 H2X        -7.6320   -3.7530   -4.1250 H         1 SAP1        0.0000
     54 H2Y        -7.4520   -5.4310   -3.4810 H         1 SAP1        0.0000
     55 C23        -4.5530   -8.7080   -2.6340 C.3       1 SAP1        0.0000
     56 H3R        -4.8500   -9.0440   -1.6140 H         1 SAP1        0.0000
     57 H3S        -4.0360   -9.5600   -3.1340 H         1 SAP1        0.0000
     58 C24        -5.7960   -8.3310   -3.4650 C.3       1 SAP1        0.0000
     59 H4R        -5.4530   -8.0400   -4.4820 H         1 SAP1        0.0000
     60 H4S        -6.2690   -7.4300   -3.0170 H         1 SAP1        0.0000
     61 C25        -6.8160   -9.4420   -3.4980 C.2       1 SAP1        0.0000
     62 H5R        -7.1190   -9.8090   -2.5040 H         1 SAP1        0.0000
     63 C26        -7.3630  -10.0080   -4.5900 C.2       1 SAP1        0.0000
     64 H6R        -8.0950  -10.8190   -4.4490 H         1 SAP1        0.0000
     65 C27        -7.0920   -9.6610   -6.0360 C.3       1 SAP1        0.0000
     66 H7R        -6.6030   -8.6670   -6.1300 H         1 SAP1        0.0000
     67 H7S        -8.0600   -9.5520   -6.5700 H         1 SAP1        0.0000
     68 C28        -6.2000  -10.7050   -6.6640 C.2       1 SAP1        0.0000
     69 H8R        -5.2100  -10.7990   -6.1880 H         1 SAP1        0.0000
     70 C29        -6.4820  -11.5090   -7.7100 C.2       1 SAP1        0.0000
     71 H9R        -5.7130  -12.2300   -8.0350 H         1 SAP1        0.0000
     72 C210       -7.7620  -11.5630   -8.5090 C.3       1 SAP1        0.0000
     73 H10R       -8.4910  -10.7970   -8.1680 H         1 SAP1        0.0000
     74 H10S       -8.2530  -12.5440   -8.3230 H         1 SAP1        0.0000
     75 C211       -7.4980  -11.3450   -9.9800 C.2       1 SAP1        0.0000
     76 H11R       -6.9550  -10.4170  -10.2190 H         1 SAP1        0.0000
     77 C212       -7.8760  -12.1510  -10.9950 C.2       1 SAP1        0.0000
     78 H12R       -7.6230  -11.8560  -12.0260 H         1 SAP1        0.0000
     79 C213       -8.6330  -13.4520  -10.8800 C.3       1 SAP1        0.0000
     80 H13R       -8.2150  -14.0520  -10.0400 H         1 SAP1        0.0000
     81 H13S       -8.4500  -14.0550  -11.7970 H         1 SAP1        0.0000
     82 C214      -10.1100  -13.2460  -10.6380 C.2       1 SAP1        0.0000
     83 H14R      -10.3550  -12.4120   -9.9590 H         1 SAP1        0.0000
     84 C215      -11.1280  -13.9600  -11.1560 C.2       1 SAP1        0.0000
     85 H15R      -12.1540  -13.6770  -10.8740 H         1 SAP1        0.0000
     86 C216      -11.0550  -15.1420  -12.0930 C.3       1 SAP1        0.0000
     87 H16R      -10.0250  -15.3350  -12.4670 H         1 SAP1        0.0000
     88 H16S      -11.6860  -14.9410  -12.9870 H         1 SAP1        0.0000
     89 C217      -11.5790  -16.4270  -11.4230 C.3       1 SAP1        0.0000
     90 H17R      -12.4890  -16.1910  -10.8260 H         1 SAP1        0.0000
     91 H17S      -10.8060  -16.8190  -10.7260 H         1 SAP1        0.0000
     92 C218      -11.9550  -17.5130  -12.4440 C.3       1 SAP1        0.0000
     93 H18R      -11.0940  -17.6830  -13.1280 H         1 SAP1        0.0000
     94 H18S      -12.8020  -17.1360  -13.0610 H         1 SAP1        0.0000
     95 C219      -12.3620  -18.8540  -11.8080 C.3       1 SAP1        0.0000
     96 H19R      -11.4660  -19.3020  -11.3210 H         1 SAP1        0.0000
     97 H19S      -12.6750  -19.5470  -12.6240 H         1 SAP1        0.0000
     98 C220      -13.4940  -18.7590  -10.7790 C.3       1 SAP1        0.0000
     99 H20R      -14.3820  -18.2570  -11.2200 H         1 SAP1        0.0000
    100 H20S      -13.1650  -18.1830   -9.8870 H         1 SAP1        0.0000
    101 H20T      -13.7950  -19.7730  -10.4390 H         1 SAP1        0.0000
    102 C33        -7.0230   -5.2410   -5.6250 C.3       1 SAP1        0.0000
    103 H3X        -6.3530   -6.1330   -5.6660 H         1 SAP1        0.0000
    104 H3Y        -6.5890   -4.4710   -6.3060 H         1 SAP1        0.0000
    105 C34        -8.3910   -5.6580   -6.1770 C.3       1 SAP1        0.0000
    106 H4X        -9.1000   -4.8020   -6.1390 H         1 SAP1        0.0000
    107 H4Y        -8.8100   -6.4830   -5.5570 H         1 SAP1        0.0000
    108 C35        -8.2340   -6.1380   -7.6250 C.3       1 SAP1        0.0000
    109 H5X        -7.4170   -6.8950   -7.6500 H         1 SAP1        0.0000
    110 H5Y        -7.9120   -5.2800   -8.2570 H         1 SAP1        0.0000
    111 C36        -9.4860   -6.7710   -8.2420 C.3       1 SAP1        0.0000
    112 H6X       -10.3280   -6.0440   -8.2420 H         1 SAP1        0.0000
    113 H6Y        -9.7850   -7.6530   -7.6320 H         1 SAP1        0.0000
    114 C37        -9.1970   -7.2270   -9.6790 C.3       1 SAP1        0.0000
    115 H7X        -8.2870   -7.8690   -9.6680 H         1 SAP1        0.0000
    116 H7Y        -8.9680   -6.3400  -10.3090 H         1 SAP1        0.0000
    117 C38       -10.3350   -8.0250  -10.3220 C.3       1 SAP1        0.0000
    118 H8X       -11.2450   -7.3900  -10.4030 H         1 SAP1        0.0000
    119 H8Y       -10.5790   -8.8880   -9.6620 H         1 SAP1        0.0000
    120 C39        -9.9380   -8.5510  -11.7090 C.3       1 SAP1        0.0000
    121 H9X        -8.9910   -9.1290  -11.6080 H         1 SAP1        0.0000
    122 H9Y        -9.7440   -7.6950  -12.3920 H         1 SAP1        0.0000
    123 C310      -10.9980   -9.4700  -12.3250 C.3       1 SAP1        0.0000
    124 H10X      -11.9370   -8.8980  -12.4860 H         1 SAP1        0.0000
    125 H10Y      -11.2180  -10.2850  -11.5990 H         1 SAP1        0.0000
    126 C311      -10.5400  -10.1070  -13.6450 C.3       1 SAP1        0.0000
    127 H11X       -9.5440  -10.5790  -13.4850 H         1 SAP1        0.0000
    128 H11Y      -10.4190   -9.3200  -14.4210 H         1 SAP1        0.0000
    129 C312      -11.5140  -11.1850  -14.1380 C.3       1 SAP1        0.0000
    130 H12X      -12.5080  -10.7300  -14.3460 H         1 SAP1        0.0000
    131 H12Y      -11.6410  -11.9360  -13.3230 H         1 SAP1        0.0000
    132 C313      -11.0180  -11.9200  -15.3890 C.3       1 SAP1        0.0000
    133 H13X       -9.9870  -12.2940  -15.1950 H         1 SAP1        0.0000
    134 H13Y      -10.9670  -11.2090  -16.2430 H         1 SAP1        0.0000
    135 C314      -11.9180  -13.1110  -15.7490 C.3       1 SAP1        0.0000
    136 H14X      -12.9420  -12.7450  -15.9820 H         1 SAP1        0.0000
    137 H14Y      -11.9930  -13.7730  -14.8580 H         1 SAP1        0.0000
    138 C315      -11.3890  -13.9430  -16.9260 C.3       1 SAP1        0.0000
    139 H15X      -10.3130  -14.1700  -16.7520 H         1 SAP1        0.0000
    140 H15Y      -11.4620  -13.3440  -17.8600 H         1 SAP1        0.0000
    141 C316      -12.1220  -15.2810  -17.1130 C.3       1 SAP1        0.0000
    142 H16X      -11.9700  -15.9050  -16.2040 H         1 SAP1        0.0000
    143 H16Y      -11.6630  -15.8220  -17.9710 H         1 SAP1        0.0000
    144 C317      -13.6280  -15.1450  -17.3680 C.3       1 SAP1        0.0000
    145 H17X      -13.7860  -14.4720  -18.2410 H         1 SAP1        0.0000
    146 H17Y      -14.1100  -14.6710  -16.4830 H         1 SAP1        0.0000
    147 C318      -14.3120  -16.4870  -17.6430 C.3       1 SAP1        0.0000
    148 H18X      -14.1870  -17.1750  -16.7800 H         1 SAP1        0.0000
    149 H18Y      -13.8720  -16.9720  -18.5410 H         1 SAP1        0.0000
    150 H18Z      -15.3980  -16.3390  -17.8220 H         1 SAP1        0.0000
@<TRIPOS>BOND
     1  149  147 1 
     2  145  144 1 
     3  143  141 1 
     4  140  138 1 
     5  150  147 1 
     6  147  144 1 
     7  147  148 1 
     8  144  141 1 
     9  144  146 1 
    10  141  138 1 
    11  141  142 1 
    12  138  139 1 
    13  138  135 1 
    14  134  132 1 
    15  136  135 1 
    16  135  132 1 
    17  135  137 1 
    18  132  133 1 
    19  132  129 1 
    20  128  126 1 
    21  130  129 1 
    22  129  126 1 
    23  129  131 1 
    24  126  127 1 
    25  126  123 1 
    26   93   92 1 
    27   94   92 1 
    28   88   86 1 
    29   97   95 1 
    30  124  123 1 
    31   87   86 1 
    32   92   95 1 
    33   92   89 1 
    34  122  120 1 
    35  123  120 1 
    36  123  125 1 
    37   86   89 1 
    38   86   84 1 
    39   78   77 1 
    40   95   96 1 
    41   95   98 1 
    42   81   79 1 
    43  120  121 1 
    44  120  117 1 
    45   89   90 1 
    46   89   91 1 
    47   99   98 1 
    48   84   85 1 
    49   84   82 2 
    50   77   79 1 
    51   77   75 2 
    52   79   82 1 
    53   79   80 1 
    54   98  101 1 
    55   98  100 1 
    56   82   83 1 
    57  118  117 1 
    58  117  114 1 
    59  117  119 1 
    60  116  114 1 
    61   76   75 1 
    62   75   72 1 
    63  114  115 1 
    64  114  111 1 
    65   72   74 1 
    66   72   73 1 
    67   72   70 1 
    68  110  108 1 
    69  112  111 1 
    70  111  113 1 
    71  111  108 1 
    72   71   70 1 
    73   70   68 2 
    74  109  108 1 
    75  108  105 1 
    76   68   69 1 
    77   68   65 1 
    78   67   65 1 
    79  104  102 1 
    80  105  106 1 
    81  105  102 1 
    82  105  107 1 
    83   66   65 1 
    84   65   63 1 
    85  103  102 1 
    86  102   52 1 
    87   63   64 1 
    88   63   61 2 
    89   59   58 1 
    90   51   50 2 
    91   52   53 1 
    92   52   50 1 
    93   52   54 1 
    94   50   49 1 
    95   45   43 1 
    96   61   58 1 
    97   61   62 1 
    98   58   60 1 
    99   58   55 1 
   100   57   55 1 
   101   47   46 1 
   102   49   46 1 
   103   55   43 1 
   104   55   56 1 
   105   31   30 2 
   106   43   44 1 
   107   43   41 1 
   108   32   30 1 
   109   46   48 1 
   110   46   38 1 
   111   30   34 1 
   112   30   33 1 
   113   40   41 1 
   114   40   38 1 
   115   41   42 2 
   116   34   35 1 
   117   38   35 1 
   118   38   39 1 
   119   29   28 1 
   120    6    5 1 
   121    2    1 1 
   122   35   36 1 
   123   35   37 1 
   124   33   28 1 
   125   28    1 1 
   126   28   24 1 
   127   15   12 2 
   128    1    5 1 
   129    1    3 1 
   130    5    7 1 
   131    5    9 1 
   132    8    7 1 
   133   26   24 1 
   134   26   27 1 
   135   17   16 1 
   136   13   12 1 
   137   11   12 1 
   138   11    9 1 
   139   24   16 1 
   140   24   25 1 
   141   12   14 1 
   142    9   16 1 
   143    9   10 1 
   144    3    4 1 
   145   16   18 1 
   146   22   19 2 
   147   18   19 1 
   148   19   23 1 
   149   19   20 1 
   150   20   21 1 
