@<TRIPOS>MOLECULE
C:\Users\Praveer\PycharmProjects\pdb_to_mol2_converter\data\pdb\sapi33.pdb
  153   153     0     0     0
SMALL
GASTEIGER

@<TRIPOS>ATOM
      1 C12         1.5400   -0.0930    0.3470 C.3       1 SAP1        0.0000
      2 H2          2.0350   -0.8030   -0.3580 H         1 SAP1        0.0000
      3 O2          1.8290   -0.5380    1.6750 O.3       1 SAP1        0.0000
      4 HO2         1.4630    0.1720    2.2280 H         1 SAP1        0.0000
      5 C13         2.1210    1.2830    0.0830 C.3       1 SAP1        0.0000
      6 H3          1.8170    1.5470   -0.9650 H         1 SAP1        0.0000
      7 O3          3.5560    1.2100    0.2000 O.3       1 SAP1        0.0000
      8 P3          4.5040    0.9480   -1.1160 P.3       1 SAP1        0.0000
      9 OP32        4.6920    2.4000   -1.7320 O.3       1 SAP1        0.0000
     10 HP32        4.2660    3.0590   -1.1280 H         1 SAP1        0.0000
     11 OP33        5.8710    0.4440   -0.6610 O.3       1 SAP1        0.0000
     12 OP34        3.7920    0.0550   -2.1340 O.2       1 SAP1        0.0000
     13 C14         1.4890    2.3470    1.0140 C.3       1 SAP1        0.0000
     14 H4          2.2090    2.5840    1.8300 H         1 SAP1        0.0000
     15 O4          1.2370    3.5510    0.2670 O.3       1 SAP1        0.0000
     16 P4          2.3140    4.6780   -0.3150 P.3       1 SAP1        0.0000
     17 OP42        1.9690    6.0080    0.3560 O.3       1 SAP1        0.0000
     18 OP43        2.0650    4.7380   -1.8250 O.2       1 SAP1        0.0000
     19 OP44        3.7390    4.2430   -0.0030 O.3       1 SAP1        0.0000
     20 C15         0.1390    1.9220    1.7260 C.3       1 SAP1        0.0000
     21 H5         -0.5450    2.7940    1.5690 H         1 SAP1        0.0000
     22 O5          0.2850    1.7720    3.1550 O.3       1 SAP1        0.0000
     23 P5         -0.9960    1.9370    4.2220 P.3       1 SAP1        0.0000
     24 OP52       -0.9150    0.7210    5.1380 O.3       1 SAP1        0.0000
     25 OP53       -2.2840    1.9560    3.4010 O.2       1 SAP1        0.0000
     26 OP54       -0.7780    3.2450    4.9880 O.3       1 SAP1        0.0000
     27 C16        -0.6070    0.6660    1.1890 C.3       1 SAP1        0.0000
     28 H6         -0.6070   -0.0740    2.0330 H         1 SAP1        0.0000
     29 O6         -1.9940    0.9130    1.0190 O.3       1 SAP1        0.0000
     30 HO6        -2.2330    1.3050    1.9010 H         1 SAP1        0.0000
     31 C11         0.0480   -0.1280    0.0670 C.3       1 SAP1        0.0000
     32 H1         -0.1450    0.3780   -0.9090 H         1 SAP1        0.0000
     33 P          -1.6130   -2.2040   -0.7500 P.3       1 SAP1        0.0000
     34 O13        -2.0800   -1.4300   -1.9280 O.2       1 SAP1        0.0000
     35 O14        -2.6470   -2.7100    0.1860 O.3       1 SAP1        0.0000
     36 O12        -0.3470   -1.5110    0.0280 O.3       1 SAP1        0.0000
     37 O11        -0.8870   -3.5070   -1.3130 O.3       1 SAP1        0.0000
     38 C1         -0.9010   -3.9010   -2.6820 C.3       1 SAP1        0.0000
     39 HA          0.0850   -4.3590   -2.9210 H         1 SAP1        0.0000
     40 HB         -1.0200   -3.0340   -3.3720 H         1 SAP1        0.0000
     41 C2         -1.9930   -4.9780   -2.9510 C.3       1 SAP1        0.0000
     42 HS         -1.8690   -5.3530   -3.9950 H         1 SAP1        0.0000
     43 O21        -3.3070   -4.4360   -2.7640 O.3       1 SAP1        0.0000
     44 C21        -3.6660   -3.5480   -3.6740 C.2       1 SAP1        0.0000
     45 O22        -3.1460   -3.3990   -4.7680 O.2       1 SAP1        0.0000
     46 C22        -4.9120   -2.8040   -3.1930 C.3       1 SAP1        0.0000
     47 H2R        -4.7030   -1.7200   -3.3270 H         1 SAP1        0.0000
     48 H2S        -5.0470   -2.9840   -2.1080 H         1 SAP1        0.0000
     49 C3         -1.8200   -6.1810   -1.9790 C.3       1 SAP1        0.0000
     50 HX         -1.9750   -5.7820   -0.9490 H         1 SAP1        0.0000
     51 HY         -0.7680   -6.5390   -2.0280 H         1 SAP1        0.0000
     52 O31        -2.7640   -7.2580   -2.2060 O.3       1 SAP1        0.0000
     53 C31        -2.5210   -8.0040   -3.2720 C.2       1 SAP1        0.0000
     54 O32        -1.5930   -7.8650   -4.0470 O.2       1 SAP1        0.0000
     55 C32        -3.5450   -9.1400   -3.3500 C.3       1 SAP1        0.0000
     56 H2X        -4.2570   -9.0610   -2.5040 H         1 SAP1        0.0000
     57 H2Y        -2.9730  -10.0850   -3.2400 H         1 SAP1        0.0000
     58 C23        -6.1610   -3.2130   -4.0100 C.3       1 SAP1        0.0000
     59 H3R        -5.9570   -3.0250   -5.0900 H         1 SAP1        0.0000
     60 H3S        -7.0130   -2.5580   -3.7200 H         1 SAP1        0.0000
     61 C24        -6.5720   -4.6930   -3.8370 C.3       1 SAP1        0.0000
     62 H4R        -5.7120   -5.3370   -4.1290 H         1 SAP1        0.0000
     63 H4S        -7.3930   -4.9050   -4.5600 H         1 SAP1        0.0000
     64 C25        -7.0160   -5.0360   -2.4370 C.2       1 SAP1        0.0000
     65 H5R        -6.8330   -4.2570   -1.6790 H         1 SAP1        0.0000
     66 C26        -7.6000   -6.1910   -2.0610 C.2       1 SAP1        0.0000
     67 H6R        -7.8870   -6.3130   -1.0040 H         1 SAP1        0.0000
     68 C27        -7.9020   -7.3690   -2.9600 C.3       1 SAP1        0.0000
     69 H7R        -7.3090   -7.3100   -3.9000 H         1 SAP1        0.0000
     70 H7S        -8.9680   -7.3110   -3.2680 H         1 SAP1        0.0000
     71 C28        -7.5980   -8.6870   -2.2840 C.2       1 SAP1        0.0000
     72 H8R        -6.6350   -8.7120   -1.7460 H         1 SAP1        0.0000
     73 C29        -8.3590   -9.8020   -2.2790 C.2       1 SAP1        0.0000
     74 H9R        -7.9860  -10.6840   -1.7340 H         1 SAP1        0.0000
     75 C210       -9.6980  -10.0160   -2.9480 C.3       1 SAP1        0.0000
     76 H10R      -10.1410   -9.0530   -3.2820 H         1 SAP1        0.0000
     77 H10S      -10.4120  -10.4300   -2.2030 H         1 SAP1        0.0000
     78 C211       -9.5570  -10.9170   -4.1520 C.2       1 SAP1        0.0000
     79 H11R       -8.7680  -10.6050   -4.8570 H         1 SAP1        0.0000
     80 C212      -10.2700  -12.0220   -4.4510 C.2       1 SAP1        0.0000
     81 H12R      -10.0330  -12.5530   -5.3850 H         1 SAP1        0.0000
     82 C213      -11.4020  -12.6480   -3.6700 C.3       1 SAP1        0.0000
     83 H13R      -11.5740  -12.1300   -2.7020 H         1 SAP1        0.0000
     84 H13S      -11.1240  -13.6900   -3.4030 H         1 SAP1        0.0000
     85 C214      -12.6760  -12.6050   -4.4810 C.2       1 SAP1        0.0000
     86 H14R      -13.0720  -11.5900   -4.6380 H         1 SAP1        0.0000
     87 C215      -13.3560  -13.6390   -5.0190 C.2       1 SAP1        0.0000
     88 H15R      -14.2740  -13.4190   -5.5870 H         1 SAP1        0.0000
     89 C216      -13.0170  -15.1080   -4.9520 C.3       1 SAP1        0.0000
     90 H16R      -12.0370  -15.2990   -4.4610 H         1 SAP1        0.0000
     91 H16S      -12.9360  -15.5090   -5.9860 H         1 SAP1        0.0000
     92 C217      -14.0980  -15.9050   -4.1940 C.3       1 SAP1        0.0000
     93 H17R      -15.1020  -15.6920   -4.6190 H         1 SAP1        0.0000
     94 H17S      -14.1120  -15.5620   -3.1330 H         1 SAP1        0.0000
     95 C218      -13.8650  -17.4280   -4.2040 C.3       1 SAP1        0.0000
     96 H18R      -14.5990  -17.9010   -3.5120 H         1 SAP1        0.0000
     97 H18S      -12.8480  -17.6360   -3.8030 H         1 SAP1        0.0000
     98 C219      -14.0080  -18.1000   -5.5810 C.3       1 SAP1        0.0000
     99 H19R      -13.7770  -19.1840   -5.4640 H         1 SAP1        0.0000
    100 H19S      -13.2470  -17.6790   -6.2760 H         1 SAP1        0.0000
    101 C220      -15.3980  -17.9610   -6.2120 C.3       1 SAP1        0.0000
    102 H20R      -15.6320  -16.8970   -6.4250 H         1 SAP1        0.0000
    103 H20S      -16.1770  -18.3630   -5.5280 H         1 SAP1        0.0000
    104 H20T      -15.4490  -18.5220   -7.1680 H         1 SAP1        0.0000
    105 C33        -4.3120   -9.1700   -4.6920 C.3       1 SAP1        0.0000
    106 H3X        -3.6040   -9.0310   -5.5430 H         1 SAP1        0.0000
    107 H3Y        -5.0450   -8.3320   -4.7210 H         1 SAP1        0.0000
    108 C34        -5.0470  -10.5030   -4.8940 C.3       1 SAP1        0.0000
    109 H4X        -5.6890  -10.7030   -4.0070 H         1 SAP1        0.0000
    110 H4Y        -4.2960  -11.3220   -4.9630 H         1 SAP1        0.0000
    111 C35        -5.9280  -10.5280   -6.1510 C.3       1 SAP1        0.0000
    112 H5X        -5.3210  -10.2630   -7.0450 H         1 SAP1        0.0000
    113 H5Y        -6.7210   -9.7560   -6.0410 H         1 SAP1        0.0000
    114 C36        -6.5850  -11.8980   -6.3790 C.3       1 SAP1        0.0000
    115 H6X        -7.0500  -12.2330   -5.4250 H         1 SAP1        0.0000
    116 H6Y        -5.8070  -12.6440   -6.6520 H         1 SAP1        0.0000
    117 C37        -7.6710  -11.8610   -7.4630 C.3       1 SAP1        0.0000
    118 H7X        -7.2260  -11.5550   -8.4360 H         1 SAP1        0.0000
    119 H7Y        -8.4200  -11.0880   -7.1770 H         1 SAP1        0.0000
    120 C38        -8.3940  -13.2050   -7.6280 C.3       1 SAP1        0.0000
    121 H8X        -8.6400  -13.6070   -6.6200 H         1 SAP1        0.0000
    122 H8Y        -7.7110  -13.9370   -8.1140 H         1 SAP1        0.0000
    123 C39        -9.6950  -13.0780   -8.4370 C.3       1 SAP1        0.0000
    124 H9X        -9.4370  -12.9060   -9.5070 H         1 SAP1        0.0000
    125 H9Y       -10.2600  -12.1870   -8.0770 H         1 SAP1        0.0000
    126 C310      -10.6200  -14.3000   -8.3200 C.3       1 SAP1        0.0000
    127 H10X      -11.4820  -14.1620   -9.0110 H         1 SAP1        0.0000
    128 H10Y      -11.0280  -14.3550   -7.2840 H         1 SAP1        0.0000
    129 C311       -9.9210  -15.6250   -8.6450 C.3       1 SAP1        0.0000
    130 H11X       -9.1550  -15.8370   -7.8670 H         1 SAP1        0.0000
    131 H11Y       -9.3990  -15.5320   -9.6250 H         1 SAP1        0.0000
    132 C312      -10.8850  -16.8170   -8.7180 C.3       1 SAP1        0.0000
    133 H12X      -11.5630  -16.6690   -9.5870 H         1 SAP1        0.0000
    134 H12Y      -11.5170  -16.8570   -7.8040 H         1 SAP1        0.0000
    135 C313      -10.1340  -18.1470   -8.8780 C.3       1 SAP1        0.0000
    136 H13X       -9.7810  -18.4930   -7.8820 H         1 SAP1        0.0000
    137 H13Y       -9.2340  -17.9640   -9.5080 H         1 SAP1        0.0000
    138 C314      -10.9580  -19.2480   -9.5610 C.3       1 SAP1        0.0000
    139 H14X      -10.3120  -20.1430   -9.7070 H         1 SAP1        0.0000
    140 H14Y      -11.2600  -18.8870  -10.5700 H         1 SAP1        0.0000
    141 C315      -12.2170  -19.6720   -8.7920 C.3       1 SAP1        0.0000
    142 H15X      -12.8460  -18.7800   -8.5780 H         1 SAP1        0.0000
    143 H15Y      -11.9230  -20.1210   -7.8180 H         1 SAP1        0.0000
    144 C316      -13.0470  -20.6780   -9.5990 C.3       1 SAP1        0.0000
    145 H16X      -12.4190  -21.5660   -9.8360 H         1 SAP1        0.0000
    146 H16Y      -13.3380  -20.2060  -10.5650 H         1 SAP1        0.0000
    147 C317      -14.3160  -21.1430   -8.8770 C.3       1 SAP1        0.0000
    148 H17X      -14.9090  -20.2490   -8.5790 H         1 SAP1        0.0000
    149 H17Y      -14.0270  -21.6800   -7.9450 H         1 SAP1        0.0000
    150 C318      -15.1870  -22.0540   -9.7460 C.3       1 SAP1        0.0000
    151 H18X      -14.6140  -22.9530  -10.0600 H         1 SAP1        0.0000
    152 H18Y      -15.5160  -21.5140  -10.6610 H         1 SAP1        0.0000
    153 H18Z      -16.0890  -22.3850   -9.1890 H         1 SAP1        0.0000
@<TRIPOS>BOND
     1  152  150 1 
     2  140  138 1 
     3  146  144 1 
     4  151  150 1 
     5  145  144 1 
     6  150  153 1 
     7  150  147 1 
     8  139  138 1 
     9  131  129 1 
    10  144  147 1 
    11  144  141 1 
    12  133  132 1 
    13  138  135 1 
    14  138  141 1 
    15  137  135 1 
    16  124  123 1 
    17  127  126 1 
    18  135  132 1 
    19  135  136 1 
    20  147  148 1 
    21  147  149 1 
    22  141  142 1 
    23  141  143 1 
    24  132  129 1 
    25  132  134 1 
    26  129  126 1 
    27  129  130 1 
    28  123  126 1 
    29  123  125 1 
    30  123  120 1 
    31  118  117 1 
    32  126  128 1 
    33  122  120 1 
    34  120  117 1 
    35  120  121 1 
    36  117  119 1 
    37  117  114 1 
    38  104  101 1 
    39  112  111 1 
    40  116  114 1 
    41  102  101 1 
    42  114  111 1 
    43  114  115 1 
    44  100   98 1 
    45  101   98 1 
    46  101  103 1 
    47  111  113 1 
    48  111  108 1 
    49   91   89 1 
    50   88   87 1 
    51   98   99 1 
    52   98   95 1 
    53  106  105 1 
    54   81   80 1 
    55   59   58 1 
    56   87   89 1 
    57   87   85 2 
    58  110  108 1 
    59   89   90 1 
    60   89   92 1 
    61  108  105 1 
    62  108  109 1 
    63   79   78 1 
    64   45   44 2 
    65  107  105 1 
    66  105   55 1 
    67   86   85 1 
    68   93   92 1 
    69   63   61 1 
    70   85   82 1 
    71   80   78 2 
    72   80   82 1 
    73   95   92 1 
    74   95   97 1 
    75   95   96 1 
    76   92   94 1 
    77   78   75 1 
    78   62   61 1 
    79   54   53 2 
    80   58   61 1 
    81   58   60 1 
    82   58   46 1 
    83   42   41 1 
    84   69   68 1 
    85   61   64 1 
    86   44   46 1 
    87   44   43 1 
    88   82   84 1 
    89   82   83 1 
    90   40   38 1 
    91   55   53 1 
    92   55   57 1 
    93   55   56 1 
    94   47   46 1 
    95   76   75 1 
    96   53   52 1 
    97   70   68 1 
    98   46   48 1 
    99   68   71 1 
   100   68   66 1 
   101   41   43 1 
   102   41   38 1 
   103   41   49 1 
   104   75   73 1 
   105   75   77 1 
   106   39   38 1 
   107   38   37 1 
   108   64   66 2 
   109   64   65 1 
   110   71   73 2 
   111   71   72 1 
   112   73   74 1 
   113   52   49 1 
   114   12    8 2 
   115   66   67 1 
   116   51   49 1 
   117   49   50 1 
   118   34   33 2 
   119   18   16 2 
   120    9   10 1 
   121    9    8 1 
   122   37   33 1 
   123    8   11 1 
   124    8    7 1 
   125    6    5 1 
   126   32   31 1 
   127   33   36 1 
   128   33   35 1 
   129    2    1 1 
   130   16   19 1 
   131   16   15 1 
   132   16   17 1 
   133   36   31 1 
   134   31    1 1 
   135   31   27 1 
   136    5    7 1 
   137    5    1 1 
   138    5   13 1 
   139   15   13 1 
   140    1    3 1 
   141   13   20 1 
   142   13   14 1 
   143   29   27 1 
   144   29   30 1 
   145   27   20 1 
   146   27   28 1 
   147   21   20 1 
   148    3    4 1 
   149   20   22 1 
   150   22   23 1 
   151   25   23 2 
   152   23   26 1 
   153   23   24 1 
