@<TRIPOS>MOLECULE
C:\Users\Praveer\PycharmProjects\pdb_to_mol2_converter\data\pdb\sapi13.pdb
  146   146     0     0     0
SMALL
GASTEIGER

@<TRIPOS>ATOM
      1 C12         1.8490    0.1220   -0.0780 C.3       1 SAP1        0.0000
      2 H2          2.2860   -0.3720   -0.9830 H         1 SAP1        0.0000
      3 O2          2.4060   -0.4980    1.0720 O.3       1 SAP1        0.0000
      4 HO2         3.3640   -0.5290    0.8170 H         1 SAP1        0.0000
      5 C13         2.2130    1.5970   -0.0780 C.3       1 SAP1        0.0000
      6 H3          1.8090    2.0280   -1.0250 H         1 SAP1        0.0000
      7 O3          3.6150    1.9100   -0.0120 O.3       1 SAP1        0.0000
      8 P3          4.7900    1.0570   -0.7820 P.3       1 SAP1        0.0000
      9 OP32        4.3360    0.9830   -2.2320 O.2       1 SAP1        0.0000
     10 OP33        4.8070   -0.2850   -0.0570 O.3       1 SAP1        0.0000
     11 OP34        6.0690    1.8650   -0.5850 O.3       1 SAP1        0.0000
     12 C14         1.5520    2.2910    1.0920 C.3       1 SAP1        0.0000
     13 H4          2.0490    1.8910    2.0140 H         1 SAP1        0.0000
     14 O4          1.8180    3.6900    1.0250 O.3       1 SAP1        0.0000
     15 HO4         2.7010    3.6880    0.6170 H         1 SAP1        0.0000
     16 C15         0.0590    2.0280    1.2490 C.3       1 SAP1        0.0000
     17 H5         -0.4280    2.6430    0.4470 H         1 SAP1        0.0000
     18 O5         -0.3990    2.5590    2.4960 O.3       1 SAP1        0.0000
     19 HO5         0.0690    3.3960    2.5710 H         1 SAP1        0.0000
     20 C16        -0.4080    0.5990    0.9750 C.3       1 SAP1        0.0000
     21 H6         -0.1710    0.0120    1.8970 H         1 SAP1        0.0000
     22 O6         -1.8200    0.5380    0.7440 O.3       1 SAP1        0.0000
     23 HO6        -1.9550   -0.0140   -0.0500 H         1 SAP1        0.0000
     24 C11         0.3400   -0.0580   -0.1740 C.3       1 SAP1        0.0000
     25 H1          0.0550    0.4970   -1.1100 H         1 SAP1        0.0000
     26 P          -0.9700   -1.9970   -1.4570 P.3       1 SAP1        0.0000
     27 O13        -0.2510   -2.2510   -2.7180 O.2       1 SAP1        0.0000
     28 O14        -2.1300   -1.0650   -1.5010 O.3       1 SAP1        0.0000
     29 O12         0.0350   -1.4610   -0.2770 O.3       1 SAP1        0.0000
     30 O11        -1.4630   -3.3860   -0.8690 O.3       1 SAP1        0.0000
     31 C1         -2.8360   -3.6100   -0.5660 C.3       1 SAP1        0.0000
     32 HA         -3.2880   -2.7500   -0.0190 H         1 SAP1        0.0000
     33 HB         -2.9020   -4.4970    0.1030 H         1 SAP1        0.0000
     34 C2         -3.6590   -3.9130   -1.8430 C.3       1 SAP1        0.0000
     35 HS         -3.5920   -3.0200   -2.5120 H         1 SAP1        0.0000
     36 O21        -5.0040   -4.1530   -1.3900 O.3       1 SAP1        0.0000
     37 C21        -5.9730   -3.8000   -2.2110 C.2       1 SAP1        0.0000
     38 O22        -5.8560   -3.5040   -3.3890 O.2       1 SAP1        0.0000
     39 C22        -7.2820   -3.6910   -1.4230 C.3       1 SAP1        0.0000
     40 H2R        -7.7270   -2.7100   -1.6970 H         1 SAP1        0.0000
     41 H2S        -7.0540   -3.6720   -0.3380 H         1 SAP1        0.0000
     42 C3         -3.0460   -5.1310   -2.5990 C.3       1 SAP1        0.0000
     43 HX         -3.2320   -6.0600   -2.0130 H         1 SAP1        0.0000
     44 HY         -1.9430   -4.9790   -2.6060 H         1 SAP1        0.0000
     45 O31        -3.4730   -5.2040   -3.9760 O.3       1 SAP1        0.0000
     46 C31        -4.4520   -6.0520   -4.2340 C.2       1 SAP1        0.0000
     47 O32        -4.9740   -6.8050   -3.4360 O.2       1 SAP1        0.0000
     48 C32        -4.8080   -5.9520   -5.7190 C.3       1 SAP1        0.0000
     49 H2X        -3.9140   -6.2450   -6.3060 H         1 SAP1        0.0000
     50 H2Y        -5.0560   -4.8930   -5.9440 H         1 SAP1        0.0000
     51 C23        -8.3010   -4.8080   -1.7430 C.3       1 SAP1        0.0000
     52 H3R        -8.4550   -4.8930   -2.8430 H         1 SAP1        0.0000
     53 H3S        -9.2760   -4.5100   -1.2910 H         1 SAP1        0.0000
     54 C24        -7.8850   -6.1700   -1.1620 C.3       1 SAP1        0.0000
     55 H4R        -7.6090   -6.0330   -0.0920 H         1 SAP1        0.0000
     56 H4S        -6.9560   -6.5020   -1.6820 H         1 SAP1        0.0000
     57 C25        -8.9870   -7.1960   -1.2730 C.2       1 SAP1        0.0000
     58 H5R        -9.7920   -7.0990   -0.5280 H         1 SAP1        0.0000
     59 C26        -9.0520   -8.1940   -2.1780 C.2       1 SAP1        0.0000
     60 H6R        -9.9070   -8.8870   -2.1490 H         1 SAP1        0.0000
     61 C27        -8.0510   -8.4610   -3.2720 C.3       1 SAP1        0.0000
     62 H7R        -7.6310   -7.5000   -3.6410 H         1 SAP1        0.0000
     63 H7S        -8.5690   -8.9040   -4.1510 H         1 SAP1        0.0000
     64 C28        -6.9030   -9.3340   -2.8190 C.2       1 SAP1        0.0000
     65 H8R        -6.1440   -8.8090   -2.2120 H         1 SAP1        0.0000
     66 C29        -6.7130  -10.6280   -3.1260 C.2       1 SAP1        0.0000
     67 H9R        -5.8210  -11.1410   -2.7330 H         1 SAP1        0.0000
     68 C210       -7.6290  -11.4910   -3.9650 C.3       1 SAP1        0.0000
     69 H10R       -8.6860  -11.2080   -3.7650 H         1 SAP1        0.0000
     70 H10S       -7.5340  -12.5450   -3.6240 H         1 SAP1        0.0000
     71 C211       -7.3030  -11.4030   -5.4350 C.2       1 SAP1        0.0000
     72 H11R       -6.2280  -11.3710   -5.6730 H         1 SAP1        0.0000
     73 C212       -8.1840  -11.3400   -6.4610 C.2       1 SAP1        0.0000
     74 H12R       -7.7860  -11.2670   -7.4840 H         1 SAP1        0.0000
     75 C213       -9.6900  -11.3610   -6.3750 C.3       1 SAP1        0.0000
     76 H13R      -10.0360  -11.5550   -5.3360 H         1 SAP1        0.0000
     77 H13S      -10.0630  -12.2220   -6.9690 H         1 SAP1        0.0000
     78 C214      -10.2920  -10.0570   -6.8500 C.2       1 SAP1        0.0000
     79 H14R       -9.7960   -9.1530   -6.4590 H         1 SAP1        0.0000
     80 C215      -11.3500   -9.9030   -7.6680 C.2       1 SAP1        0.0000
     81 H15R      -11.6810   -8.8820   -7.9160 H         1 SAP1        0.0000
     82 C216      -12.1760  -11.0020   -8.2930 C.3       1 SAP1        0.0000
     83 H16R      -11.6210  -11.9630   -8.3210 H         1 SAP1        0.0000
     84 H16S      -12.4170  -10.7530   -9.3500 H         1 SAP1        0.0000
     85 C217      -13.4960  -11.2210   -7.5280 C.3       1 SAP1        0.0000
     86 H17R      -14.0870  -10.2760   -7.5440 H         1 SAP1        0.0000
     87 H17S      -13.2800  -11.4650   -6.4630 H         1 SAP1        0.0000
     88 C218      -14.3640  -12.3440   -8.1190 C.3       1 SAP1        0.0000
     89 H18R      -14.5420  -12.1380   -9.1970 H         1 SAP1        0.0000
     90 H18S      -15.3530  -12.3320   -7.6060 H         1 SAP1        0.0000
     91 C219      -13.7560  -13.7460   -7.9590 C.3       1 SAP1        0.0000
     92 H19R      -13.5430  -13.9240   -6.8800 H         1 SAP1        0.0000
     93 H19S      -12.7840  -13.7910   -8.4990 H         1 SAP1        0.0000
     94 C220      -14.6680  -14.8580   -8.4840 C.3       1 SAP1        0.0000
     95 H20R      -14.8600  -14.7190   -9.5700 H         1 SAP1        0.0000
     96 H20S      -15.6420  -14.8410   -7.9500 H         1 SAP1        0.0000
     97 H20T      -14.2030  -15.8560   -8.3330 H         1 SAP1        0.0000
     98 C33        -6.0040   -6.8570   -6.0700 C.3       1 SAP1        0.0000
     99 H3X        -6.9100   -6.4720   -5.5460 H         1 SAP1        0.0000
    100 H3Y        -5.8220   -7.8940   -5.7020 H         1 SAP1        0.0000
    101 C34        -6.2930   -6.9260   -7.5760 C.3       1 SAP1        0.0000
    102 H4X        -5.4440   -7.4290   -8.0870 H         1 SAP1        0.0000
    103 H4Y        -6.3810   -5.8970   -7.9900 H         1 SAP1        0.0000
    104 C35        -7.5970   -7.6920   -7.8310 C.3       1 SAP1        0.0000
    105 H5X        -8.4210   -7.1440   -7.3170 H         1 SAP1        0.0000
    106 H5Y        -7.5170   -8.6950   -7.3580 H         1 SAP1        0.0000
    107 C36        -7.9800   -7.8730   -9.3070 C.3       1 SAP1        0.0000
    108 H6X        -8.0520   -6.8830   -9.8080 H         1 SAP1        0.0000
    109 H6Y        -8.9980   -8.3220   -9.3100 H         1 SAP1        0.0000
    110 C37        -7.0240   -8.7910  -10.0900 C.3       1 SAP1        0.0000
    111 H7X        -6.8580   -9.7250   -9.5080 H         1 SAP1        0.0000
    112 H7Y        -6.0400   -8.2810  -10.1970 H         1 SAP1        0.0000
    113 C38        -7.5410   -9.1770  -11.4880 C.3       1 SAP1        0.0000
    114 H8X        -6.7710   -9.8080  -11.9890 H         1 SAP1        0.0000
    115 H8Y        -7.6720   -8.2550  -12.0970 H         1 SAP1        0.0000
    116 C39        -8.8640   -9.9570  -11.4610 C.3       1 SAP1        0.0000
    117 H9X        -9.6570   -9.3460  -10.9760 H         1 SAP1        0.0000
    118 H9Y        -8.7330  -10.8800  -10.8520 H         1 SAP1        0.0000
    119 C310       -9.3620  -10.3340  -12.8600 C.3       1 SAP1        0.0000
    120 H10X       -8.6020  -10.9700  -13.3670 H         1 SAP1        0.0000
    121 H10Y       -9.4950   -9.4130  -13.4690 H         1 SAP1        0.0000
    122 C311      -10.6910  -11.0960  -12.8090 C.3       1 SAP1        0.0000
    123 H11X      -11.4610  -10.4720  -12.3020 H         1 SAP1        0.0000
    124 H11Y      -10.5290  -12.0060  -12.1890 H         1 SAP1        0.0000
    125 C312      -11.1880  -11.4900  -14.2060 C.3       1 SAP1        0.0000
    126 H12X      -10.3690  -12.0380  -14.7270 H         1 SAP1        0.0000
    127 H12Y      -11.4040  -10.5690  -14.7920 H         1 SAP1        0.0000
    128 C313      -12.4350  -12.3900  -14.1970 C.3       1 SAP1        0.0000
    129 H13X      -12.6340  -12.7070  -15.2460 H         1 SAP1        0.0000
    130 H13Y      -13.3170  -11.8150  -13.8390 H         1 SAP1        0.0000
    131 C314      -12.2570  -13.6390  -13.3210 C.3       1 SAP1        0.0000
    132 H14X      -12.2880  -13.3410  -12.2480 H         1 SAP1        0.0000
    133 H14Y      -11.2500  -14.0640  -13.5280 H         1 SAP1        0.0000
    134 C315      -13.3190  -14.7210  -13.5550 C.3       1 SAP1        0.0000
    135 H15X      -13.2420  -15.0920  -14.6010 H         1 SAP1        0.0000
    136 H15Y      -14.3290  -14.2690  -13.4330 H         1 SAP1        0.0000
    137 C316      -13.1840  -15.9070  -12.5830 C.3       1 SAP1        0.0000
    138 H16X      -14.0060  -16.6310  -12.7840 H         1 SAP1        0.0000
    139 H16Y      -13.3080  -15.5350  -11.5410 H         1 SAP1        0.0000
    140 C317      -11.8400  -16.6440  -12.6880 C.3       1 SAP1        0.0000
    141 H17X      -11.0150  -15.9390  -12.4370 H         1 SAP1        0.0000
    142 H17Y      -11.6950  -16.9680  -13.7430 H         1 SAP1        0.0000
    143 C318      -11.7350  -17.8610  -11.7650 C.3       1 SAP1        0.0000
    144 H18X      -12.5280  -18.6020  -12.0040 H         1 SAP1        0.0000
    145 H18Y      -11.8460  -17.5570  -10.7020 H         1 SAP1        0.0000
    146 H18Z      -10.7460  -18.3540  -11.8870 H         1 SAP1        0.0000
@<TRIPOS>BOND
     1  129  128 1 
     2  127  125 1 
     3  126  125 1 
     4  135  134 1 
     5  125  128 1 
     6  125  122 1 
     7  128  130 1 
     8  128  131 1 
     9  142  140 1 
    10  134  136 1 
    11  134  131 1 
    12  134  137 1 
    13  133  131 1 
    14  121  119 1 
    15  120  119 1 
    16  131  132 1 
    17  119  122 1 
    18  119  116 1 
    19  122  123 1 
    20  122  124 1 
    21  138  137 1 
    22  140  137 1 
    23  140  141 1 
    24  140  143 1 
    25  137  139 1 
    26  115  113 1 
    27  144  143 1 
    28  114  113 1 
    29  146  143 1 
    30  143  145 1 
    31  113  116 1 
    32  113  110 1 
    33  116  117 1 
    34  116  118 1 
    35  112  110 1 
    36  110  111 1 
    37  110  107 1 
    38  108  107 1 
    39   95   94 1 
    40   84   82 1 
    41  109  107 1 
    42  107  104 1 
    43   89   88 1 
    44   93   91 1 
    45   94   97 1 
    46   94   91 1 
    47   94   96 1 
    48   83   82 1 
    49   82   80 1 
    50   82   85 1 
    51   88   91 1 
    52   88   90 1 
    53   88   85 1 
    54  102  101 1 
    55  103  101 1 
    56   91   92 1 
    57   81   80 1 
    58  104  101 1 
    59  104  106 1 
    60  104  105 1 
    61   80   78 2 
    62  101   98 1 
    63   86   85 1 
    64   85   87 1 
    65   74   73 1 
    66   77   75 1 
    67   78   79 1 
    68   78   75 1 
    69   73   75 1 
    70   73   71 2 
    71   75   76 1 
    72   49   48 1 
    73   98   48 1 
    74   98  100 1 
    75   98   99 1 
    76   50   48 1 
    77   48   46 1 
    78   72   71 1 
    79   71   68 1 
    80   46   45 1 
    81   46   47 2 
    82   63   61 1 
    83   45   42 1 
    84   68   69 1 
    85   68   70 1 
    86   68   66 1 
    87   62   61 1 
    88   38   37 2 
    89   61   64 1 
    90   61   59 1 
    91   66   64 2 
    92   66   67 1 
    93   52   51 1 
    94   64   65 1 
    95   27   26 2 
    96   44   42 1 
    97   42   43 1 
    98   42   34 1 
    99   35   34 1 
   100    9    8 2 
   101   37   39 1 
   102   37   36 1 
   103   59   60 1 
   104   59   57 2 
   105   34   36 1 
   106   34   31 1 
   107   51   39 1 
   108   51   53 1 
   109   51   54 1 
   110   40   39 1 
   111   56   54 1 
   112   28   26 1 
   113   26   30 1 
   114   26   29 1 
   115   39   41 1 
   116   57   54 1 
   117   57   58 1 
   118   54   55 1 
   119   25   24 1 
   120    6    5 1 
   121    2    1 1 
   122   30   31 1 
   123    8   11 1 
   124    8   10 1 
   125    8    7 1 
   126   31   32 1 
   127   31   33 1 
   128   29   24 1 
   129   24    1 1 
   130   24   20 1 
   131    5    1 1 
   132    5    7 1 
   133    5   12 1 
   134    1    3 1 
   135   23   22 1 
   136   17   16 1 
   137   15   14 1 
   138   22   20 1 
   139    4    3 1 
   140   20   16 1 
   141   20   21 1 
   142   14   12 1 
   143   12   16 1 
   144   12   13 1 
   145   16   18 1 
   146   18   19 1 
