@<TRIPOS>MOLECULE
C:\Users\Praveer\PycharmProjects\pdb_to_mol2_converter\data\pdb\sapi2a.pdb
  150   150     0     0     0
SMALL
GASTEIGER

@<TRIPOS>ATOM
      1 C12         1.4780   -0.3800    0.3380 C.3       1 SAP1        0.0000
      2 H2          1.8760   -1.1000   -0.4160 H         1 SAP1        0.0000
      3 O2          1.8520   -0.8560    1.6290 O.3       1 SAP1        0.0000
      4 HO2         1.0930   -0.6690    2.1940 H         1 SAP1        0.0000
      5 C13         2.0640    0.9830    0.0210 C.3       1 SAP1        0.0000
      6 H3          1.6120    1.3030   -0.9570 H         1 SAP1        0.0000
      7 O3          3.5020    0.8890   -0.0410 O.3       1 SAP1        0.0000
      8 P3          4.2890    1.2730   -1.4220 P.3       1 SAP1        0.0000
      9 OP32        4.0190    2.8340   -1.2740 O.3       1 SAP1        0.0000
     10 HP32        3.2800    2.9210   -0.6420 H         1 SAP1        0.0000
     11 OP33        5.7760    0.9750   -1.2970 O.3       1 SAP1        0.0000
     12 OP34        3.5440    0.7220   -2.6270 O.2       1 SAP1        0.0000
     13 C14         1.6120    2.0020    1.0570 C.3       1 SAP1        0.0000
     14 H4          2.1480    1.7390    2.0050 H         1 SAP1        0.0000
     15 O4          1.9880    3.3350    0.7240 O.3       1 SAP1        0.0000
     16 HO4         1.5150    3.8460    1.3950 H         1 SAP1        0.0000
     17 C15         0.1200    1.9800    1.3930 C.3       1 SAP1        0.0000
     18 H5         -0.3330    2.6110    0.5810 H         1 SAP1        0.0000
     19 O5         -0.0720    2.7310    2.5960 O.3       1 SAP1        0.0000
     20 P5         -1.0380    2.3740    3.8730 P.3       1 SAP1        0.0000
     21 OP52       -0.4000    1.1520    4.5180 O.3       1 SAP1        0.0000
     22 OP53       -2.4150    2.0990    3.2760 O.2       1 SAP1        0.0000
     23 OP54       -1.0050    3.6170    4.7550 O.3       1 SAP1        0.0000
     24 C16        -0.6340    0.6470    1.2080 C.3       1 SAP1        0.0000
     25 H6         -0.5590    0.1090    2.1850 H         1 SAP1        0.0000
     26 O6         -2.0170    0.8870    0.9970 O.3       1 SAP1        0.0000
     27 HO6        -2.2990    1.3190    1.8470 H         1 SAP1        0.0000
     28 C11        -0.0320   -0.3380    0.2030 C.3       1 SAP1        0.0000
     29 H1         -0.2520    0.0620   -0.8180 H         1 SAP1        0.0000
     30 P          -1.5930   -2.4020   -0.6840 P.3       1 SAP1        0.0000
     31 O13        -2.0220   -1.4970   -1.7760 O.2       1 SAP1        0.0000
     32 O14        -2.6520   -3.1320    0.0560 O.3       1 SAP1        0.0000
     33 O12        -0.5580   -1.6650    0.3670 O.3       1 SAP1        0.0000
     34 O11        -0.6580   -3.5180   -1.3330 O.3       1 SAP1        0.0000
     35 C1         -0.8200   -3.9210   -2.6960 C.3       1 SAP1        0.0000
     36 HA          0.1220   -4.4200   -3.0170 H         1 SAP1        0.0000
     37 HB         -0.9510   -3.0490   -3.3770 H         1 SAP1        0.0000
     38 C2         -1.9680   -4.9630   -2.8970 C.3       1 SAP1        0.0000
     39 HS         -1.8830   -5.3560   -3.9380 H         1 SAP1        0.0000
     40 O21        -3.2610   -4.3770   -2.6940 O.3       1 SAP1        0.0000
     41 C21        -3.6360   -3.5130   -3.6160 C.2       1 SAP1        0.0000
     42 O22        -3.1140   -3.3710   -4.7150 O.2       1 SAP1        0.0000
     43 C22        -4.8970   -2.7850   -3.1540 C.3       1 SAP1        0.0000
     44 H2R        -4.7000   -1.6990   -3.2790 H         1 SAP1        0.0000
     45 H2S        -5.0450   -2.9740   -2.0710 H         1 SAP1        0.0000
     46 C3         -1.8180   -6.1650   -1.9200 C.3       1 SAP1        0.0000
     47 HX         -1.9930   -5.7640   -0.8930 H         1 SAP1        0.0000
     48 HY         -0.7670   -6.5270   -1.9450 H         1 SAP1        0.0000
     49 O31        -2.7560   -7.2420   -2.1700 O.3       1 SAP1        0.0000
     50 C31        -2.5100   -7.9740   -3.2470 C.2       1 SAP1        0.0000
     51 O32        -1.5840   -7.8170   -4.0220 O.2       1 SAP1        0.0000
     52 C32        -3.5270   -9.1160   -3.3410 C.3       1 SAP1        0.0000
     53 H2X        -4.2570   -9.0340   -2.5120 H         1 SAP1        0.0000
     54 H2Y        -2.9540  -10.0570   -3.2100 H         1 SAP1        0.0000
     55 C23        -6.1330   -3.2060   -3.9860 C.3       1 SAP1        0.0000
     56 H3R        -5.9170   -3.0160   -5.0640 H         1 SAP1        0.0000
     57 H3S        -6.9940   -2.5570   -3.7070 H         1 SAP1        0.0000
     58 C24        -6.5340   -4.6890   -3.8180 C.3       1 SAP1        0.0000
     59 H4R        -5.6620   -5.3250   -4.0890 H         1 SAP1        0.0000
     60 H4S        -7.3370   -4.9110   -4.5580 H         1 SAP1        0.0000
     61 C25        -7.0050   -5.0320   -2.4260 C.2       1 SAP1        0.0000
     62 H5R        -6.8300   -4.2550   -1.6650 H         1 SAP1        0.0000
     63 C26        -7.6030   -6.1830   -2.0580 C.2       1 SAP1        0.0000
     64 H6R        -7.9040   -6.3030   -1.0050 H         1 SAP1        0.0000
     65 C27        -7.8990   -7.3630   -2.9570 C.3       1 SAP1        0.0000
     66 H7R        -7.3010   -7.3010   -3.8930 H         1 SAP1        0.0000
     67 H7S        -8.9620   -7.3090   -3.2740 H         1 SAP1        0.0000
     68 C28        -7.5910   -8.6820   -2.2830 C.2       1 SAP1        0.0000
     69 H8R        -6.6270   -8.7020   -1.7470 H         1 SAP1        0.0000
     70 C29        -8.3430   -9.8030   -2.2820 C.2       1 SAP1        0.0000
     71 H9R        -7.9640  -10.6830   -1.7380 H         1 SAP1        0.0000
     72 C210       -9.6830  -10.0260   -2.9480 C.3       1 SAP1        0.0000
     73 H10R      -10.1300   -9.0640   -3.2770 H         1 SAP1        0.0000
     74 H10S      -10.3940  -10.4400   -2.2010 H         1 SAP1        0.0000
     75 C211       -9.5530  -10.9250   -4.1550 C.2       1 SAP1        0.0000
     76 H11R       -8.7660  -10.6150   -4.8610 H         1 SAP1        0.0000
     77 C212      -10.2760  -12.0250   -4.4580 C.2       1 SAP1        0.0000
     78 H12R      -10.0420  -12.5540   -5.3940 H         1 SAP1        0.0000
     79 C213      -11.4060  -12.6530   -3.6780 C.3       1 SAP1        0.0000
     80 H13R      -11.5700  -12.1390   -2.7070 H         1 SAP1        0.0000
     81 H13S      -11.1310  -13.6970   -3.4160 H         1 SAP1        0.0000
     82 C214      -12.6870  -12.6040   -4.4800 C.2       1 SAP1        0.0000
     83 H14R      -13.0860  -11.5870   -4.6200 H         1 SAP1        0.0000
     84 C215      -13.3680  -13.6330   -5.0240 C.2       1 SAP1        0.0000
     85 H15R      -14.2920  -13.4080   -5.5790 H         1 SAP1        0.0000
     86 C216      -13.0290  -15.1050   -4.9760 C.3       1 SAP1        0.0000
     87 H16R      -12.0400  -15.2980   -4.5060 H         1 SAP1        0.0000
     88 H16S      -12.9680  -15.4990   -6.0130 H         1 SAP1        0.0000
     89 C217      -14.0970  -15.9070   -4.2050 C.3       1 SAP1        0.0000
     90 H17R      -15.1070  -15.7010   -4.6230 H         1 SAP1        0.0000
     91 H17S      -14.1030  -15.5590   -3.1460 H         1 SAP1        0.0000
     92 C218      -13.8550  -17.4280   -4.2090 C.3       1 SAP1        0.0000
     93 H18R      -14.5850  -17.9010   -3.5130 H         1 SAP1        0.0000
     94 H18S      -12.8350  -17.6300   -3.8100 H         1 SAP1        0.0000
     95 C219      -14.0010  -18.1100   -5.5820 C.3       1 SAP1        0.0000
     96 H19R      -13.7790  -19.1950   -5.4550 H         1 SAP1        0.0000
     97 H19S      -13.2340  -17.7030   -6.2770 H         1 SAP1        0.0000
     98 C220      -15.3870  -17.9670   -6.2200 C.3       1 SAP1        0.0000
     99 H20R      -15.6050  -16.9030   -6.4530 H         1 SAP1        0.0000
    100 H20S      -16.1730  -18.3440   -5.5300 H         1 SAP1        0.0000
    101 H20T      -15.4440  -18.5460   -7.1650 H         1 SAP1        0.0000
    102 C33        -4.2700   -9.1610   -4.6980 C.3       1 SAP1        0.0000
    103 H3X        -3.5450   -9.0500   -5.5360 H         1 SAP1        0.0000
    104 H3Y        -4.9850   -8.3100   -4.7540 H         1 SAP1        0.0000
    105 C34        -5.0300  -10.4830   -4.8950 C.3       1 SAP1        0.0000
    106 H4X        -5.6590  -10.6790   -3.9970 H         1 SAP1        0.0000
    107 H4Y        -4.2920  -11.3120   -4.9800 H         1 SAP1        0.0000
    108 C35        -5.9370  -10.4920   -6.1350 C.3       1 SAP1        0.0000
    109 H5X        -5.3440  -10.2240   -7.0370 H         1 SAP1        0.0000
    110 H5Y        -6.7220   -9.7140   -6.0040 H         1 SAP1        0.0000
    111 C36        -6.6090  -11.8560   -6.3610 C.3       1 SAP1        0.0000
    112 H6X        -7.0880  -12.1770   -5.4090 H         1 SAP1        0.0000
    113 H6Y        -5.8340  -12.6130   -6.6140 H         1 SAP1        0.0000
    114 C37        -7.6810  -11.8310   -7.4610 C.3       1 SAP1        0.0000
    115 H7X        -7.2240  -11.5370   -8.4310 H         1 SAP1        0.0000
    116 H7Y        -8.4350  -11.0550   -7.1960 H         1 SAP1        0.0000
    117 C38        -8.3980  -13.1810   -7.6190 C.3       1 SAP1        0.0000
    118 H8X        -8.6450  -13.5750   -6.6090 H         1 SAP1        0.0000
    119 H8Y        -7.7090  -13.9140   -8.0930 H         1 SAP1        0.0000
    120 C39        -9.6970  -13.0800   -8.4340 C.3       1 SAP1        0.0000
    121 H9X        -9.4390  -12.9220   -9.5050 H         1 SAP1        0.0000
    122 H9Y       -10.2730  -12.1910   -8.0920 H         1 SAP1        0.0000
    123 C310      -10.6090  -14.3130   -8.3040 C.3       1 SAP1        0.0000
    124 H10X      -11.4720  -14.1900   -8.9970 H         1 SAP1        0.0000
    125 H10Y      -11.0190  -14.3600   -7.2700 H         1 SAP1        0.0000
    126 C311       -9.9010  -15.6380   -8.6150 C.3       1 SAP1        0.0000
    127 H11X       -9.1570  -15.8540   -7.8170 H         1 SAP1        0.0000
    128 H11Y       -9.3500  -15.5370   -9.5770 H         1 SAP1        0.0000
    129 C312      -10.8670  -16.8270   -8.7300 C.3       1 SAP1        0.0000
    130 H12X      -11.5250  -16.6590   -9.6120 H         1 SAP1        0.0000
    131 H12Y      -11.5170  -16.8810   -7.8300 H         1 SAP1        0.0000
    132 C313      -10.1240  -18.1600   -8.9040 C.3       1 SAP1        0.0000
    133 H13X       -9.7420  -18.5040   -7.9190 H         1 SAP1        0.0000
    134 H13Y       -9.2410  -17.9820   -9.5610 H         1 SAP1        0.0000
    135 C314      -10.9670  -19.2630   -9.5620 C.3       1 SAP1        0.0000
    136 H14X      -10.3300  -20.1660   -9.7060 H         1 SAP1        0.0000
    137 H14Y      -11.2760  -18.9100  -10.5720 H         1 SAP1        0.0000
    138 C315      -12.2260  -19.6730   -8.7840 C.3       1 SAP1        0.0000
    139 H15X      -12.8430  -18.7750   -8.5630 H         1 SAP1        0.0000
    140 H15Y      -11.9320  -20.1310   -7.8140 H         1 SAP1        0.0000
    141 C316      -13.0710  -20.6660   -9.5940 C.3       1 SAP1        0.0000
    142 H16X      -12.4490  -21.5540   -9.8440 H         1 SAP1        0.0000
    143 H16Y      -13.3630  -20.1820  -10.5540 H         1 SAP1        0.0000
    144 C317      -14.3400  -21.1350   -8.8760 C.3       1 SAP1        0.0000
    145 H17X      -14.9470  -20.2460   -8.5970 H         1 SAP1        0.0000
    146 H17Y      -14.0530  -21.6550   -7.9330 H         1 SAP1        0.0000
    147 C318      -15.1900  -22.0730   -9.7380 C.3       1 SAP1        0.0000
    148 H18X      -14.6010  -22.9670  -10.0340 H         1 SAP1        0.0000
    149 H18Y      -15.5220  -21.5530  -10.6630 H         1 SAP1        0.0000
    150 H18Z      -16.0910  -22.4120   -9.1820 H         1 SAP1        0.0000
@<TRIPOS>BOND
     1  149  147 1 
     2  137  135 1 
     3  143  141 1 
     4  148  147 1 
     5  142  141 1 
     6  147  150 1 
     7  147  144 1 
     8  136  135 1 
     9  130  129 1 
    10  141  144 1 
    11  141  138 1 
    12  128  126 1 
    13  135  132 1 
    14  135  138 1 
    15  134  132 1 
    16  121  120 1 
    17  124  123 1 
    18  132  129 1 
    19  132  133 1 
    20  144  145 1 
    21  144  146 1 
    22  138  139 1 
    23  138  140 1 
    24  129  126 1 
    25  129  131 1 
    26  126  123 1 
    27  126  127 1 
    28  120  123 1 
    29  120  122 1 
    30  120  117 1 
    31  115  114 1 
    32  123  125 1 
    33  119  117 1 
    34  117  114 1 
    35  117  118 1 
    36  114  116 1 
    37  114  111 1 
    38  101   98 1 
    39  109  108 1 
    40  113  111 1 
    41   99   98 1 
    42  111  108 1 
    43  111  112 1 
    44   97   95 1 
    45   98   95 1 
    46   98  100 1 
    47  108  110 1 
    48  108  105 1 
    49   88   86 1 
    50   95   96 1 
    51   95   92 1 
    52   85   84 1 
    53  103  102 1 
    54   78   77 1 
    55   56   55 1 
    56   84   86 1 
    57   84   82 2 
    58  107  105 1 
    59   86   87 1 
    60   86   89 1 
    61  105  102 1 
    62  105  106 1 
    63   76   75 1 
    64  104  102 1 
    65   42   41 2 
    66  102   52 1 
    67   90   89 1 
    68   83   82 1 
    69   60   58 1 
    70   82   79 1 
    71   77   75 2 
    72   77   79 1 
    73   92   89 1 
    74   92   94 1 
    75   92   93 1 
    76   89   91 1 
    77   75   72 1 
    78   59   58 1 
    79   51   50 2 
    80   55   58 1 
    81   55   57 1 
    82   55   43 1 
    83   39   38 1 
    84   66   65 1 
    85   58   61 1 
    86   79   81 1 
    87   79   80 1 
    88   41   43 1 
    89   41   40 1 
    90   37   35 1 
    91   52   50 1 
    92   52   54 1 
    93   52   53 1 
    94   44   43 1 
    95   73   72 1 
    96   67   65 1 
    97   50   49 1 
    98   43   45 1 
    99   36   35 1 
   100   65   68 1 
   101   65   63 1 
   102   72   70 1 
   103   72   74 1 
   104   38   35 1 
   105   38   40 1 
   106   38   46 1 
   107   35   34 1 
   108   12    8 2 
   109   61   63 2 
   110   61   62 1 
   111   68   70 2 
   112   68   69 1 
   113   70   71 1 
   114   49   46 1 
   115   63   64 1 
   116   48   46 1 
   117   46   47 1 
   118   31   30 2 
   119    8   11 1 
   120    8    9 1 
   121    8    7 1 
   122   34   30 1 
   123    9   10 1 
   124    6    5 1 
   125   29   28 1 
   126   30   32 1 
   127   30   33 1 
   128    2    1 1 
   129    7    5 1 
   130    5    1 1 
   131    5   13 1 
   132   28    1 1 
   133   28   33 1 
   134   28   24 1 
   135    1    3 1 
   136   18   17 1 
   137   15   13 1 
   138   15   16 1 
   139   26   24 1 
   140   26   27 1 
   141   13   17 1 
   142   13   14 1 
   143   24   17 1 
   144   24   25 1 
   145   17   19 1 
   146    3    4 1 
   147   19   20 1 
   148   22   20 2 
   149   20   21 1 
   150   20   23 1 
