@<TRIPOS>MOLECULE
C:\Users\Praveer\PycharmProjects\pdb_to_mol2_converter\data\pdb\sapi2b.pdb
  150   150     0     0     0
SMALL
GASTEIGER

@<TRIPOS>ATOM
      1 C12         1.4380   -0.3650    0.3120 C.3       1 SAP1        0.0000
      2 H2          1.8500   -1.1260   -0.3950 H         1 SAP1        0.0000
      3 O2          1.8690   -0.7070    1.6240 O.3       1 SAP1        0.0000
      4 HO2         2.7480   -0.3100    1.6410 H         1 SAP1        0.0000
      5 C13         2.0300    0.9750   -0.0570 C.3       1 SAP1        0.0000
      6 H3          1.6450    1.2340   -1.0770 H         1 SAP1        0.0000
      7 O3          3.4640    0.8560   -0.0600 O.3       1 SAP1        0.0000
      8 P3          4.3960    1.5990   -1.2060 P.3       1 SAP1        0.0000
      9 OP32        3.9590    3.0620   -1.1790 O.3       1 SAP1        0.0000
     10 OP33        5.8330    1.3980   -0.7410 O.3       1 SAP1        0.0000
     11 OP34        4.0750    0.8950   -2.5150 O.2       1 SAP1        0.0000
     12 C14         1.5780    2.0530    0.9120 C.3       1 SAP1        0.0000
     13 H4          2.2210    1.9030    1.8190 H         1 SAP1        0.0000
     14 O4          1.9240    3.3490    0.4360 O.3       1 SAP1        0.0000
     15 HO4         2.7230    3.2270   -0.1480 H         1 SAP1        0.0000
     16 C15         0.1280    1.9610    1.4480 C.3       1 SAP1        0.0000
     17 H5         -0.4020    2.7200    0.8150 H         1 SAP1        0.0000
     18 O5          0.0840    2.4940    2.7820 O.3       1 SAP1        0.0000
     19 P5         -1.0780    2.3130    3.9020 P.3       1 SAP1        0.0000
     20 OP52       -0.5070    0.9510    4.4920 O.3       1 SAP1        0.0000
     21 HP52       -0.0780    0.4810    3.7650 H         1 SAP1        0.0000
     22 OP53       -2.4250    2.0610    3.2370 O.2       1 SAP1        0.0000
     23 OP54       -0.9880    3.3990    4.9600 O.3       1 SAP1        0.0000
     24 C16        -0.6690    0.6630    1.1400 C.3       1 SAP1        0.0000
     25 H6         -0.6520    0.0810    2.0940 H         1 SAP1        0.0000
     26 O6         -2.0470    0.9360    0.8930 O.3       1 SAP1        0.0000
     27 HO6        -2.3820    1.3340    1.7220 H         1 SAP1        0.0000
     28 C11        -0.0720   -0.3450    0.1680 C.3       1 SAP1        0.0000
     29 H1         -0.2830    0.0080   -0.8740 H         1 SAP1        0.0000
     30 P          -1.7480   -2.3870   -0.5460 P.3       1 SAP1        0.0000
     31 O13        -2.2010   -1.5210   -1.6630 O.2       1 SAP1        0.0000
     32 O14        -2.7950   -3.0010    0.3020 O.3       1 SAP1        0.0000
     33 O12        -0.6080   -1.6610    0.3930 O.3       1 SAP1        0.0000
     34 O11        -0.8930   -3.5800   -1.1630 O.3       1 SAP1        0.0000
     35 C1         -0.9120   -3.9060   -2.5500 C.3       1 SAP1        0.0000
     36 HA          0.0790   -4.3410   -2.8070 H         1 SAP1        0.0000
     37 HB         -1.0270   -3.0080   -3.2000 H         1 SAP1        0.0000
     38 C2         -1.9960   -4.9760   -2.8670 C.3       1 SAP1        0.0000
     39 HS         -1.8390   -5.3260   -3.9130 H         1 SAP1        0.0000
     40 O21        -3.3160   -4.4330   -2.7050 O.3       1 SAP1        0.0000
     41 C21        -3.6550   -3.5470   -3.6260 C.2       1 SAP1        0.0000
     42 O22        -3.0980   -3.3830   -4.6960 O.2       1 SAP1        0.0000
     43 C22        -4.9150   -2.8090   -3.1750 C.3       1 SAP1        0.0000
     44 H2R        -4.7040   -1.7270   -3.3080 H         1 SAP1        0.0000
     45 H2S        -5.0680   -2.9880   -2.0920 H         1 SAP1        0.0000
     46 C3         -1.8420   -6.2070   -1.9270 C.3       1 SAP1        0.0000
     47 HX         -2.0040   -5.8370   -0.8880 H         1 SAP1        0.0000
     48 HY         -0.7910   -6.5700   -1.9770 H         1 SAP1        0.0000
     49 O31        -2.7870   -7.2720   -2.1930 O.3       1 SAP1        0.0000
     50 C31        -2.5380   -7.9950   -3.2740 C.2       1 SAP1        0.0000
     51 O32        -1.6140   -7.8280   -4.0490 O.2       1 SAP1        0.0000
     52 C32        -3.5430   -9.1480   -3.3610 C.3       1 SAP1        0.0000
     53 H2X        -4.2620   -9.0810   -2.5200 H         1 SAP1        0.0000
     54 H2Y        -2.9560  -10.0830   -3.2480 H         1 SAP1        0.0000
     55 C23        -6.1510   -3.2220   -4.0100 C.3       1 SAP1        0.0000
     56 H3R        -5.9350   -3.0360   -5.0880 H         1 SAP1        0.0000
     57 H3S        -7.0050   -2.5640   -3.7290 H         1 SAP1        0.0000
     58 C24        -6.5680   -4.7000   -3.8360 C.3       1 SAP1        0.0000
     59 H4R        -5.7080   -5.3480   -4.1210 H         1 SAP1        0.0000
     60 H4S        -7.3830   -4.9100   -4.5650 H         1 SAP1        0.0000
     61 C25        -7.0250   -5.0390   -2.4390 C.2       1 SAP1        0.0000
     62 H5R        -6.8480   -4.2610   -1.6800 H         1 SAP1        0.0000
     63 C26        -7.6120   -6.1930   -2.0650 C.2       1 SAP1        0.0000
     64 H6R        -7.9020   -6.3140   -1.0080 H         1 SAP1        0.0000
     65 C27        -7.9070   -7.3730   -2.9620 C.3       1 SAP1        0.0000
     66 H7R        -7.3070   -7.3150   -3.8970 H         1 SAP1        0.0000
     67 H7S        -8.9690   -7.3190   -3.2810 H         1 SAP1        0.0000
     68 C28        -7.6010   -8.6860   -2.2770 C.2       1 SAP1        0.0000
     69 H8R        -6.6390   -8.7040   -1.7380 H         1 SAP1        0.0000
     70 C29        -8.3540   -9.8060   -2.2750 C.2       1 SAP1        0.0000
     71 H9R        -7.9820  -10.6840   -1.7220 H         1 SAP1        0.0000
     72 C210       -9.6890  -10.0240   -2.9490 C.3       1 SAP1        0.0000
     73 H10R      -10.1320   -9.0610   -3.2810 H         1 SAP1        0.0000
     74 H10S      -10.4070  -10.4330   -2.2060 H         1 SAP1        0.0000
     75 C211       -9.5510  -10.9230   -4.1540 C.2       1 SAP1        0.0000
     76 H11R       -8.7630  -10.6110   -4.8590 H         1 SAP1        0.0000
     77 C212      -10.2720  -12.0230   -4.4570 C.2       1 SAP1        0.0000
     78 H12R      -10.0360  -12.5530   -5.3920 H         1 SAP1        0.0000
     79 C213      -11.4020  -12.6480   -3.6750 C.3       1 SAP1        0.0000
     80 H13R      -11.5690  -12.1280   -2.7070 H         1 SAP1        0.0000
     81 H13S      -11.1250  -13.6900   -3.4040 H         1 SAP1        0.0000
     82 C214      -12.6790  -12.6040   -4.4800 C.2       1 SAP1        0.0000
     83 H14R      -13.0780  -11.5890   -4.6300 H         1 SAP1        0.0000
     84 C215      -13.3590  -13.6390   -5.0180 C.2       1 SAP1        0.0000
     85 H15R      -14.2810  -13.4180   -5.5780 H         1 SAP1        0.0000
     86 C216      -13.0200  -15.1090   -4.9580 C.3       1 SAP1        0.0000
     87 H16R      -12.0370  -15.2990   -4.4720 H         1 SAP1        0.0000
     88 H16S      -12.9440  -15.5090   -5.9920 H         1 SAP1        0.0000
     89 C217      -14.0980  -15.9070   -4.1970 C.3       1 SAP1        0.0000
     90 H17R      -15.1040  -15.6940   -4.6210 H         1 SAP1        0.0000
     91 H17S      -14.1090  -15.5630   -3.1370 H         1 SAP1        0.0000
     92 C218      -13.8640  -17.4300   -4.2060 C.3       1 SAP1        0.0000
     93 H18R      -14.5980  -17.9020   -3.5130 H         1 SAP1        0.0000
     94 H18S      -12.8460  -17.6380   -3.8050 H         1 SAP1        0.0000
     95 C219      -14.0100  -18.1070   -5.5810 C.3       1 SAP1        0.0000
     96 H19R      -13.7840  -19.1910   -5.4600 H         1 SAP1        0.0000
     97 H19S      -13.2470  -17.6940   -6.2770 H         1 SAP1        0.0000
     98 C220      -15.3990  -17.9670   -6.2150 C.3       1 SAP1        0.0000
     99 H20R      -15.6270  -16.9020   -6.4320 H         1 SAP1        0.0000
    100 H20S      -16.1790  -18.3610   -5.5300 H         1 SAP1        0.0000
    101 H20T      -15.4510  -18.5320   -7.1700 H         1 SAP1        0.0000
    102 C33        -4.3040   -9.1850   -4.7050 C.3       1 SAP1        0.0000
    103 H3X        -3.5920   -9.0560   -5.5530 H         1 SAP1        0.0000
    104 H3Y        -5.0310   -8.3430   -4.7410 H         1 SAP1        0.0000
    105 C34        -5.0450  -10.5150   -4.9030 C.3       1 SAP1        0.0000
    106 H4X        -5.6830  -10.7150   -4.0120 H         1 SAP1        0.0000
    107 H4Y        -4.2980  -11.3370   -4.9770 H         1 SAP1        0.0000
    108 C35        -5.9340  -10.5290   -6.1550 C.3       1 SAP1        0.0000
    109 H5X        -5.3290  -10.2600   -7.0490 H         1 SAP1        0.0000
    110 H5Y        -6.7230   -9.7540   -6.0340 H         1 SAP1        0.0000
    111 C36        -6.5980  -11.8940   -6.3870 C.3       1 SAP1        0.0000
    112 H6X        -7.0690  -12.2270   -5.4340 H         1 SAP1        0.0000
    113 H6Y        -5.8230  -12.6450   -6.6560 H         1 SAP1        0.0000
    114 C37        -7.6790  -11.8520   -7.4750 C.3       1 SAP1        0.0000
    115 H7X        -7.2310  -11.5500   -8.4480 H         1 SAP1        0.0000
    116 H7Y        -8.4260  -11.0750   -7.1930 H         1 SAP1        0.0000
    117 C38        -8.4050  -13.1950   -7.6350 C.3       1 SAP1        0.0000
    118 H8X        -8.6540  -13.5890   -6.6250 H         1 SAP1        0.0000
    119 H8Y        -7.7240  -13.9310   -8.1160 H         1 SAP1        0.0000
    120 C39        -9.7050  -13.0760   -8.4450 C.3       1 SAP1        0.0000
    121 H9X        -9.4500  -12.9100   -9.5150 H         1 SAP1        0.0000
    122 H9Y       -10.2740  -12.1860   -8.0910 H         1 SAP1        0.0000
    123 C310      -10.6210  -14.3050   -8.3170 C.3       1 SAP1        0.0000
    124 H10X      -11.4900  -14.1740   -9.0010 H         1 SAP1        0.0000
    125 H10Y      -11.0190  -14.3570   -7.2790 H         1 SAP1        0.0000
    126 C311       -9.9170  -15.6290   -8.6400 C.3       1 SAP1        0.0000
    127 H11X       -9.1510  -15.8390   -7.8610 H         1 SAP1        0.0000
    128 H11Y       -9.3910  -15.5310   -9.6170 H         1 SAP1        0.0000
    129 C312      -10.8810  -16.8220   -8.7210 C.3       1 SAP1        0.0000
    130 H12X      -11.5560  -16.6680   -9.5930 H         1 SAP1        0.0000
    131 H12Y      -11.5130  -16.8630   -7.8070 H         1 SAP1        0.0000
    132 C313      -10.1310  -18.1530   -8.8840 C.3       1 SAP1        0.0000
    133 H13X       -9.7690  -18.4980   -7.8910 H         1 SAP1        0.0000
    134 H13Y       -9.2360  -17.9720   -9.5220 H         1 SAP1        0.0000
    135 C314      -10.9590  -19.2570   -9.5580 C.3       1 SAP1        0.0000
    136 H14X      -10.3150  -20.1540   -9.7000 H         1 SAP1        0.0000
    137 H14Y      -11.2620  -18.9010  -10.5690 H         1 SAP1        0.0000
    138 C315      -12.2190  -19.6760   -8.7870 C.3       1 SAP1        0.0000
    139 H15X      -12.8430  -18.7810   -8.5720 H         1 SAP1        0.0000
    140 H15Y      -11.9250  -20.1290   -7.8140 H         1 SAP1        0.0000
    141 C316      -13.0550  -20.6770   -9.5970 C.3       1 SAP1        0.0000
    142 H16X      -12.4300  -21.5650   -9.8400 H         1 SAP1        0.0000
    143 H16Y      -13.3470  -20.1970  -10.5590 H         1 SAP1        0.0000
    144 C317      -14.3250  -21.1450   -8.8780 C.3       1 SAP1        0.0000
    145 H17X      -14.9220  -20.2530   -8.5830 H         1 SAP1        0.0000
    146 H17Y      -14.0380  -21.6800   -7.9440 H         1 SAP1        0.0000
    147 C318      -15.1890  -22.0600   -9.7480 C.3       1 SAP1        0.0000
    148 H18X      -14.6120  -22.9570  -10.0600 H         1 SAP1        0.0000
    149 H18Y      -15.5180  -21.5230  -10.6640 H         1 SAP1        0.0000
    150 H18Z      -16.0920  -22.3960   -9.1940 H         1 SAP1        0.0000
@<TRIPOS>BOND
     1  149  147 1 
     2  137  135 1 
     3  143  141 1 
     4  148  147 1 
     5  142  141 1 
     6  147  150 1 
     7  147  144 1 
     8  136  135 1 
     9  128  126 1 
    10  141  144 1 
    11  141  138 1 
    12  130  129 1 
    13  135  132 1 
    14  135  138 1 
    15  134  132 1 
    16  121  120 1 
    17  124  123 1 
    18  132  129 1 
    19  132  133 1 
    20  144  145 1 
    21  144  146 1 
    22  138  139 1 
    23  138  140 1 
    24  129  126 1 
    25  129  131 1 
    26  126  123 1 
    27  126  127 1 
    28  115  114 1 
    29  120  123 1 
    30  120  122 1 
    31  120  117 1 
    32  123  125 1 
    33  119  117 1 
    34  117  114 1 
    35  117  118 1 
    36  114  116 1 
    37  114  111 1 
    38  101   98 1 
    39  109  108 1 
    40  113  111 1 
    41   99   98 1 
    42  111  108 1 
    43  111  112 1 
    44   97   95 1 
    45   98   95 1 
    46   98  100 1 
    47  108  110 1 
    48  108  105 1 
    49   88   86 1 
    50   95   96 1 
    51   95   92 1 
    52   85   84 1 
    53  103  102 1 
    54   78   77 1 
    55   56   55 1 
    56   84   86 1 
    57   84   82 2 
    58  107  105 1 
    59   86   87 1 
    60   86   89 1 
    61  105  102 1 
    62  105  106 1 
    63   76   75 1 
    64  104  102 1 
    65  102   52 1 
    66   42   41 2 
    67   83   82 1 
    68   90   89 1 
    69   60   58 1 
    70   82   79 1 
    71   77   75 2 
    72   77   79 1 
    73   92   89 1 
    74   92   94 1 
    75   92   93 1 
    76   89   91 1 
    77   75   72 1 
    78   59   58 1 
    79   51   50 2 
    80   55   58 1 
    81   55   57 1 
    82   55   43 1 
    83   39   38 1 
    84   66   65 1 
    85   58   61 1 
    86   79   81 1 
    87   79   80 1 
    88   41   43 1 
    89   41   40 1 
    90   52   50 1 
    91   52   54 1 
    92   52   53 1 
    93   44   43 1 
    94   73   72 1 
    95   67   65 1 
    96   50   49 1 
    97   37   35 1 
    98   43   45 1 
    99   65   68 1 
   100   65   63 1 
   101   72   70 1 
   102   72   74 1 
   103   38   40 1 
   104   38   35 1 
   105   38   46 1 
   106   36   35 1 
   107   35   34 1 
   108   11    8 2 
   109   61   63 2 
   110   61   62 1 
   111   68   70 2 
   112   68   69 1 
   113   70   71 1 
   114   49   46 1 
   115   63   64 1 
   116   48   46 1 
   117   46   47 1 
   118   31   30 2 
   119    8    9 1 
   120    8   10 1 
   121    8    7 1 
   122   34   30 1 
   123    6    5 1 
   124   29   28 1 
   125   30   32 1 
   126   30   33 1 
   127    2    1 1 
   128   15   14 1 
   129    7    5 1 
   130    5    1 1 
   131    5   12 1 
   132   28    1 1 
   133   28   33 1 
   134   28   24 1 
   135    1    3 1 
   136   14   12 1 
   137   17   16 1 
   138   26   24 1 
   139   26   27 1 
   140   12   16 1 
   141   12   13 1 
   142   24   16 1 
   143   24   25 1 
   144   16   18 1 
   145    3    4 1 
   146   18   19 1 
   147   22   19 2 
   148   21   20 1 
   149   19   20 1 
   150   19   23 1 
