@<TRIPOS>MOLECULE
C:\Users\Praveer\PycharmProjects\pdb_to_mol2_converter\data\pdb\sapi34.pdb
  153   153     0     0     0
SMALL
GASTEIGER

@<TRIPOS>ATOM
      1 C12         1.6280    0.0250    0.0640 C.3       1 SAP1        0.0000
      2 H2          2.0300   -0.5230   -0.8240 H         1 SAP1        0.0000
      3 O2          2.0460   -0.6870    1.2250 O.3       1 SAP1        0.0000
      4 HO2         3.0100   -0.7920    1.0320 H         1 SAP1        0.0000
      5 C13         2.2490    1.4230    0.1040 C.3       1 SAP1        0.0000
      6 H3          2.0020    1.8610   -0.8910 H         1 SAP1        0.0000
      7 O3          3.6820    1.4480    0.2200 O.3       1 SAP1        0.0000
      8 P3          4.7950    0.3890   -0.3840 P.3       1 SAP1        0.0000
      9 OP32        6.1550    0.9710   -0.0090 O.3       1 SAP1        0.0000
     10 OP33        4.5910    0.3120   -1.8900 O.2       1 SAP1        0.0000
     11 OP34        4.5210   -0.9350    0.3310 O.3       1 SAP1        0.0000
     12 C14         1.6070    2.3460    1.1760 C.3       1 SAP1        0.0000
     13 H4          2.0770    1.9400    2.1120 H         1 SAP1        0.0000
     14 O4          1.9740    3.7280    1.1550 O.3       1 SAP1        0.0000
     15 P4          2.3310    4.6950   -0.1050 P.3       1 SAP1        0.0000
     16 OP42        3.8190    4.2250   -0.4240 O.3       1 SAP1        0.0000
     17 HP42        3.8550    3.2540   -0.3330 H         1 SAP1        0.0000
     18 OP43        1.4520    4.4270   -1.3190 O.2       1 SAP1        0.0000
     19 OP44        2.4150    6.1490    0.3580 O.3       1 SAP1        0.0000
     20 C15         0.0840    2.1800    1.4920 C.3       1 SAP1        0.0000
     21 H5         -0.3890    3.0210    0.9210 H         1 SAP1        0.0000
     22 O5         -0.2100    2.3850    2.8900 O.3       1 SAP1        0.0000
     23 P5         -1.6790    2.7860    3.5660 P.3       1 SAP1        0.0000
     24 OP52       -2.0470    4.1940    3.1160 O.3       1 SAP1        0.0000
     25 OP53       -2.6910    1.7480    3.0760 O.2       1 SAP1        0.0000
     26 OP54       -1.4700    2.6980    5.0770 O.3       1 SAP1        0.0000
     27 C16        -0.5940    0.9040    0.9520 C.3       1 SAP1        0.0000
     28 H6         -0.6030    0.2280    1.8510 H         1 SAP1        0.0000
     29 O6         -1.9690    1.1270    0.6550 O.3       1 SAP1        0.0000
     30 HO6        -2.3320    1.4040    1.5370 H         1 SAP1        0.0000
     31 C11         0.1100    0.0350   -0.0900 C.3       1 SAP1        0.0000
     32 H1         -0.0880    0.5260   -1.0760 H         1 SAP1        0.0000
     33 P          -1.0220   -2.1680   -1.3350 P.3       1 SAP1        0.0000
     34 O13         0.0490   -2.8440   -2.1020 O.3       1 SAP1        0.0000
     35 O14        -2.0270   -1.4150   -2.1240 O.2       1 SAP1        0.0000
     36 O12        -0.4100   -1.3070   -0.0820 O.3       1 SAP1        0.0000
     37 O11        -1.8060   -3.3100   -0.5340 O.3       1 SAP1        0.0000
     38 C1         -1.1670   -3.9500    0.5790 C.3       1 SAP1        0.0000
     39 HA         -1.5270   -3.4870    1.5240 H         1 SAP1        0.0000
     40 HB         -0.0510   -3.8440    0.5680 H         1 SAP1        0.0000
     41 C2         -1.4610   -5.4710    0.5720 C.3       1 SAP1        0.0000
     42 HS         -0.9940   -5.9040    1.4870 H         1 SAP1        0.0000
     43 O21        -0.8750   -5.9970   -0.6240 O.3       1 SAP1        0.0000
     44 C21        -0.4770   -7.2380   -0.6470 C.2       1 SAP1        0.0000
     45 O22        -0.5710   -8.0540    0.2470 O.2       1 SAP1        0.0000
     46 C22         0.2200   -7.4710   -1.9930 C.3       1 SAP1        0.0000
     47 H2R         1.3110   -7.4250   -1.7950 H         1 SAP1        0.0000
     48 H2S        -0.0350   -6.6390   -2.6830 H         1 SAP1        0.0000
     49 C3         -2.9900   -5.7480    0.6140 C.3       1 SAP1        0.0000
     50 HX         -3.4220   -5.5250   -0.3900 H         1 SAP1        0.0000
     51 HY         -3.4320   -5.0080    1.3190 H         1 SAP1        0.0000
     52 O31        -3.2760   -7.0770    1.1100 O.3       1 SAP1        0.0000
     53 C31        -3.5650   -7.9990    0.1990 C.2       1 SAP1        0.0000
     54 O32        -3.7440   -7.8000   -0.9880 O.2       1 SAP1        0.0000
     55 C32        -3.6540   -9.3660    0.8860 C.3       1 SAP1        0.0000
     56 H2X        -4.2350   -9.2280    1.8210 H         1 SAP1        0.0000
     57 H2Y        -2.6190   -9.6760    1.1460 H         1 SAP1        0.0000
     58 C23        -0.1300   -8.8240   -2.6520 C.3       1 SAP1        0.0000
     59 H3R        -0.0930   -9.6530   -1.9110 H         1 SAP1        0.0000
     60 H3S         0.6700   -9.0050   -3.4080 H         1 SAP1        0.0000
     61 C24        -1.4950   -8.8040   -3.3660 C.3       1 SAP1        0.0000
     62 H4R        -1.5660   -7.8670   -3.9630 H         1 SAP1        0.0000
     63 H4S        -2.2840   -8.7490   -2.5890 H         1 SAP1        0.0000
     64 C25        -1.6870  -10.0010   -4.2670 C.2       1 SAP1        0.0000
     65 H5R        -0.7960  -10.2680   -4.8540 H         1 SAP1        0.0000
     66 C26        -2.7960  -10.7520   -4.4050 C.2       1 SAP1        0.0000
     67 H6R        -2.7660  -11.6000   -5.1070 H         1 SAP1        0.0000
     68 C27        -4.1290  -10.5540   -3.7190 C.3       1 SAP1        0.0000
     69 H7R        -4.1770   -9.5750   -3.1910 H         1 SAP1        0.0000
     70 H7S        -4.2410  -11.3240   -2.9260 H         1 SAP1        0.0000
     71 C28        -5.2790  -10.6440   -4.6940 C.2       1 SAP1        0.0000
     72 H8R        -5.5560   -9.6860   -5.1610 H         1 SAP1        0.0000
     73 C29        -5.9780  -11.7510   -5.0280 C.2       1 SAP1        0.0000
     74 H9R        -6.7940  -11.6570   -5.7610 H         1 SAP1        0.0000
     75 C210       -5.7590  -13.1520   -4.5090 C.3       1 SAP1        0.0000
     76 H10R       -4.8040  -13.2250   -3.9440 H         1 SAP1        0.0000
     77 H10S       -5.6450  -13.8440   -5.3720 H         1 SAP1        0.0000
     78 C211       -6.8940  -13.5740   -3.6030 C.2       1 SAP1        0.0000
     79 H11R       -7.1530  -12.8350   -2.8250 H         1 SAP1        0.0000
     80 C212       -7.5850  -14.7280   -3.6440 C.2       1 SAP1        0.0000
     81 H12R       -8.3870  -14.8850   -2.9050 H         1 SAP1        0.0000
     82 C213       -7.3890  -15.8840   -4.6010 C.3       1 SAP1        0.0000
     83 H13R       -6.9570  -15.5240   -5.5610 H         1 SAP1        0.0000
     84 H13S       -8.3830  -16.3020   -4.8710 H         1 SAP1        0.0000
     85 C214       -6.4750  -16.9410   -4.0310 C.2       1 SAP1        0.0000
     86 H14R       -5.6500  -16.5600   -3.4090 H         1 SAP1        0.0000
     87 C215       -6.5710  -18.2760   -4.2220 C.2       1 SAP1        0.0000
     88 H15R       -5.8270  -18.9340   -3.7490 H         1 SAP1        0.0000
     89 C216       -7.6210  -18.9840   -5.0410 C.3       1 SAP1        0.0000
     90 H16R       -8.6000  -18.4590   -4.9670 H         1 SAP1        0.0000
     91 H16S       -7.7850  -20.0130   -4.6480 H         1 SAP1        0.0000
     92 C217       -7.2440  -19.0810   -6.5310 C.3       1 SAP1        0.0000
     93 H17R       -6.3750  -19.7660   -6.6550 H         1 SAP1        0.0000
     94 H17S       -6.9400  -18.0750   -6.9020 H         1 SAP1        0.0000
     95 C218       -8.4070  -19.5740   -7.4060 C.3       1 SAP1        0.0000
     96 H18R       -9.2750  -18.8900   -7.2660 H         1 SAP1        0.0000
     97 H18S       -8.7160  -20.5890   -7.0710 H         1 SAP1        0.0000
     98 C219       -8.0490  -19.6140   -8.8980 C.3       1 SAP1        0.0000
     99 H19R       -7.1890  -20.3070   -9.0420 H         1 SAP1        0.0000
    100 H19S       -7.7150  -18.5970   -9.2090 H         1 SAP1        0.0000
    101 C220       -9.2070  -20.0550   -9.7990 C.3       1 SAP1        0.0000
    102 H20R      -10.0640  -19.3530   -9.7040 H         1 SAP1        0.0000
    103 H20S       -9.5530  -21.0730   -9.5180 H         1 SAP1        0.0000
    104 H20T       -8.8860  -20.0750  -10.8630 H         1 SAP1        0.0000
    105 C33        -4.3210  -10.4440   -0.0030 C.3       1 SAP1        0.0000
    106 H3X        -3.6670  -10.6650   -0.8760 H         1 SAP1        0.0000
    107 H3Y        -5.2880  -10.0550   -0.3970 H         1 SAP1        0.0000
    108 C34        -4.6070  -11.7490    0.7540 C.3       1 SAP1        0.0000
    109 H4X        -5.2030  -11.5100    1.6630 H         1 SAP1        0.0000
    110 H4Y        -3.6470  -12.2000    1.0900 H         1 SAP1        0.0000
    111 C35        -5.3860  -12.7720   -0.0910 C.3       1 SAP1        0.0000
    112 H5X        -4.7700  -13.0670   -0.9700 H         1 SAP1        0.0000
    113 H5Y        -6.3160  -12.2900   -0.4700 H         1 SAP1        0.0000
    114 C36        -5.7670  -14.0310    0.7040 C.3       1 SAP1        0.0000
    115 H6X        -6.3470  -13.7320    1.6060 H         1 SAP1        0.0000
    116 H6Y        -4.8320  -14.5300    1.0490 H         1 SAP1        0.0000
    117 C37        -6.5970  -15.0390   -0.1050 C.3       1 SAP1        0.0000
    118 H7X        -6.0550  -15.2760   -1.0490 H         1 SAP1        0.0000
    119 H7Y        -7.5740  -14.5850   -0.3820 H         1 SAP1        0.0000
    120 C38        -6.8400  -16.3470    0.6640 C.3       1 SAP1        0.0000
    121 H8X        -7.4070  -16.1380    1.5970 H         1 SAP1        0.0000
    122 H8Y        -5.8480  -16.7620    0.9550 H         1 SAP1        0.0000
    123 C39        -7.5850  -17.4020   -0.1640 C.3       1 SAP1        0.0000
    124 H9X        -7.1030  -17.4560   -1.1670 H         1 SAP1        0.0000
    125 H9Y        -8.6430  -17.0930   -0.3180 H         1 SAP1        0.0000
    126 C310       -7.5380  -18.8050    0.4610 C.3       1 SAP1        0.0000
    127 H10X       -8.1350  -18.8350    1.3980 H         1 SAP1        0.0000
    128 H10Y       -6.4790  -19.0420    0.7170 H         1 SAP1        0.0000
    129 C311       -8.0400  -19.8690   -0.5220 C.3       1 SAP1        0.0000
    130 H11X       -7.5060  -19.6990   -1.4840 H         1 SAP1        0.0000
    131 H11Y       -9.1250  -19.7220   -0.7190 H         1 SAP1        0.0000
    132 C312       -7.7860  -21.3150   -0.0640 C.3       1 SAP1        0.0000
    133 H12X       -8.5380  -21.5840    0.7120 H         1 SAP1        0.0000
    134 H12Y       -6.7770  -21.3990    0.4000 H         1 SAP1        0.0000
    135 C313       -7.8680  -22.3100   -1.2310 C.3       1 SAP1        0.0000
    136 H13X       -8.7690  -22.0700   -1.8390 H         1 SAP1        0.0000
    137 H13Y       -7.9920  -23.3430   -0.8360 H         1 SAP1        0.0000
    138 C314       -6.6180  -22.2740   -2.1240 C.3       1 SAP1        0.0000
    139 H14X       -5.7600  -22.7190   -1.5740 H         1 SAP1        0.0000
    140 H14Y       -6.3510  -21.2190   -2.3510 H         1 SAP1        0.0000
    141 C315       -6.8180  -22.9990   -3.4600 C.3       1 SAP1        0.0000
    142 H15X       -7.6880  -22.5430   -3.9850 H         1 SAP1        0.0000
    143 H15Y       -7.0540  -24.0690   -3.2690 H         1 SAP1        0.0000
    144 C316       -5.5880  -22.8890   -4.3720 C.3       1 SAP1        0.0000
    145 H16X       -4.7550  -23.4820   -3.9310 H         1 SAP1        0.0000
    146 H16Y       -5.2650  -21.8230   -4.4090 H         1 SAP1        0.0000
    147 C317       -5.8510  -23.3620   -5.8090 C.3       1 SAP1        0.0000
    148 H17X       -4.9180  -23.2210   -6.4010 H         1 SAP1        0.0000
    149 H17Y       -6.6330  -22.7070   -6.2580 H         1 SAP1        0.0000
    150 C318       -6.2980  -24.8230   -5.9210 C.3       1 SAP1        0.0000
    151 H18X       -7.2820  -24.9710   -5.4270 H         1 SAP1        0.0000
    152 H18Y       -5.5570  -25.4950   -5.4360 H         1 SAP1        0.0000
    153 H18Z       -6.3960  -25.1160   -6.9880 H         1 SAP1        0.0000
@<TRIPOS>BOND
     1  104  101 1 
     2  101  102 1 
     3  101  103 1 
     4  101   98 1 
     5  100   98 1 
     6   99   98 1 
     7   98   95 1 
     8   95   96 1 
     9   95   97 1 
    10   95   92 1 
    11  153  150 1 
    12   94   92 1 
    13   93   92 1 
    14   92   89 1 
    15  148  147 1 
    16  149  147 1 
    17  150  147 1 
    18  150  152 1 
    19  150  151 1 
    20  147  144 1 
    21   74   73 1 
    22   83   82 1 
    23   77   75 1 
    24   72   71 1 
    25   67   66 1 
    26   89   90 1 
    27   89   91 1 
    28   89   87 1 
    29   73   71 2 
    30   73   75 1 
    31   84   82 1 
    32   65   64 1 
    33   71   68 1 
    34   82   85 1 
    35   82   80 1 
    36   75   76 1 
    37   75   78 1 
    38  146  144 1 
    39   66   64 2 
    40   66   68 1 
    41  144  145 1 
    42  144  141 1 
    43   64   61 1 
    44   87   85 2 
    45   87   88 1 
    46   85   86 1 
    47  142  141 1 
    48   62   61 1 
    49   68   69 1 
    50   68   70 1 
    51   80   78 2 
    52   80   81 1 
    53   78   79 1 
    54  141  143 1 
    55  141  138 1 
    56   60   58 1 
    57   61   58 1 
    58   61   63 1 
    59   48   46 1 
    60   58   46 1 
    61   58   59 1 
    62  140  138 1 
    63  138  139 1 
    64  138  135 1 
    65   35   33 2 
    66   34   33 1 
    67   46   47 1 
    68   46   44 1 
    69   10    8 2 
    70  136  135 1 
    71  130  129 1 
    72   33   37 1 
    73   33   36 1 
    74   18   15 2 
    75  135  137 1 
    76  135  132 1 
    77  124  123 1 
    78   32   31 1 
    79  118  117 1 
    80   54   53 2 
    81  112  111 1 
    82    6    5 1 
    83  106  105 1 
    84    2    1 1 
    85  131  129 1 
    86   44   43 1 
    87   44   45 2 
    88   43   41 1 
    89   37   38 1 
    90  129  132 1 
    91  129  126 1 
    92  113  111 1 
    93   16   17 1 
    94   16   15 1 
    95  107  105 1 
    96   50   49 1 
    97    8    9 1 
    98    8    7 1 
    99    8   11 1 
   100  119  117 1 
   101  125  123 1 
   102  123  126 1 
   103  123  120 1 
   104  117  120 1 
   105  117  114 1 
   106   15   19 1 
   107   15   14 1 
   108  111  114 1 
   109  111  108 1 
   110   31   36 1 
   111   31    1 1 
   112   31   27 1 
   113  132  134 1 
   114  132  133 1 
   115  105  108 1 
   116  105   55 1 
   117    1    5 1 
   118    1    3 1 
   119    5    7 1 
   120    5   12 1 
   121   53   55 1 
   122   53   52 1 
   123  126  128 1 
   124  126  127 1 
   125   40   38 1 
   126   41   38 1 
   127   41   49 1 
   128   41   42 1 
   129   38   39 1 
   130   49   52 1 
   131   49   51 1 
   132   29   27 1 
   133   29   30 1 
   134  120  122 1 
   135  120  121 1 
   136  114  116 1 
   137  114  115 1 
   138  108  110 1 
   139  108  109 1 
   140   55   57 1 
   141   55   56 1 
   142   21   20 1 
   143   27   20 1 
   144   27   28 1 
   145    4    3 1 
   146   14   12 1 
   147   12   20 1 
   148   12   13 1 
   149   20   22 1 
   150   22   23 1 
   151   25   23 2 
   152   24   23 1 
   153   23   26 1 
