@<TRIPOS>MOLECULE
C:\Users\Praveer\PycharmProjects\pdb_to_mol2_converter\data\pdb\sapi24.pdb
  150   150     0     0     0
SMALL
GASTEIGER

@<TRIPOS>ATOM
      1 C12         1.5700   -0.0450    0.1480 C.3       1 SAP1        0.0000
      2 H2          2.0060   -0.7210   -0.6250 H         1 SAP1        0.0000
      3 O2          1.8510   -0.6330    1.4250 O.3       1 SAP1        0.0000
      4 HO2         1.3590   -0.1350    2.1030 H         1 SAP1        0.0000
      5 C13         2.2400    1.3020   -0.0470 C.3       1 SAP1        0.0000
      6 H3          1.9370    1.6810   -1.0510 H         1 SAP1        0.0000
      7 O3          3.6670    1.2430   -0.0220 O.3       1 SAP1        0.0000
      8 HO3         3.8780    2.1090    0.3540 H         1 SAP1        0.0000
      9 C14         1.7710    2.2910    1.0090 C.3       1 SAP1        0.0000
     10 H4          2.2240    1.9030    1.9620 H         1 SAP1        0.0000
     11 O4          2.3750    3.5740    0.7930 O.3       1 SAP1        0.0000
     12 P4          1.8000    4.7270   -0.2050 P.3       1 SAP1        0.0000
     13 OP42        0.6850    5.3330    0.7560 O.3       1 SAP1        0.0000
     14 HP42        0.3630    4.6130    1.3280 H         1 SAP1        0.0000
     15 OP43        2.8880    5.7640   -0.4480 O.3       1 SAP1        0.0000
     16 OP44        1.1640    4.0890   -1.4290 O.2       1 SAP1        0.0000
     17 C15         0.2530    2.2490    1.3030 C.3       1 SAP1        0.0000
     18 H5         -0.1980    2.9120    0.5270 H         1 SAP1        0.0000
     19 O5          0.0170    2.9040    2.5530 O.3       1 SAP1        0.0000
     20 P5         -0.5680    2.1590    3.8950 P.3       1 SAP1        0.0000
     21 OP52        0.3520    0.9610    4.1190 O.3       1 SAP1        0.0000
     22 OP53       -1.9920    1.7640    3.5140 O.2       1 SAP1        0.0000
     23 OP54       -0.5040    3.1920    5.0140 O.3       1 SAP1        0.0000
     24 C16        -0.5100    0.9280    1.0070 C.3       1 SAP1        0.0000
     25 H6         -0.4240    0.2610    1.8940 H         1 SAP1        0.0000
     26 O6         -1.8960    1.2040    0.8780 O.3       1 SAP1        0.0000
     27 HO6        -2.1160    1.4510    1.8100 H         1 SAP1        0.0000
     28 C11         0.0790    0.0890   -0.1250 C.3       1 SAP1        0.0000
     29 H1         -0.0810    0.6820   -1.0600 H         1 SAP1        0.0000
     30 P          -0.6140   -2.0160   -1.6740 P.3       1 SAP1        0.0000
     31 O13         0.7220   -2.0660   -2.3100 O.3       1 SAP1        0.0000
     32 O14        -1.7290   -1.5240   -2.5180 O.2       1 SAP1        0.0000
     33 O12        -0.5500   -1.2050   -0.2330 O.3       1 SAP1        0.0000
     34 O11        -0.9730   -3.4960   -1.2120 O.3       1 SAP1        0.0000
     35 C1         -2.1970   -3.8310   -0.5560 C.3       1 SAP1        0.0000
     36 HA         -2.7950   -2.9360   -0.2550 H         1 SAP1        0.0000
     37 HB         -1.9390   -4.3860    0.3700 H         1 SAP1        0.0000
     38 C2         -3.0560   -4.7380   -1.4770 C.3       1 SAP1        0.0000
     39 HS         -2.3280   -5.4060   -2.0020 H         1 SAP1        0.0000
     40 O21        -3.7770   -3.8750   -2.3660 O.3       1 SAP1        0.0000
     41 C21        -3.6780   -4.1470   -3.6480 C.2       1 SAP1        0.0000
     42 O22        -3.3220   -5.2110   -4.1320 O.2       1 SAP1        0.0000
     43 C22        -4.0450   -2.8990   -4.4510 C.3       1 SAP1        0.0000
     44 H2R        -3.1500   -2.6550   -5.0620 H         1 SAP1        0.0000
     45 H2S        -4.2100   -2.0520   -3.7530 H         1 SAP1        0.0000
     46 C3         -4.0600   -5.6460   -0.7140 C.3       1 SAP1        0.0000
     47 HX         -5.0520   -5.1430   -0.6460 H         1 SAP1        0.0000
     48 HY         -3.6890   -5.7710    0.3260 H         1 SAP1        0.0000
     49 O31        -4.1200   -6.9520   -1.3280 O.3       1 SAP1        0.0000
     50 C31        -5.0180   -7.1040   -2.2960 C.2       1 SAP1        0.0000
     51 O32        -5.9790   -6.3940   -2.4960 O.2       1 SAP1        0.0000
     52 C32        -4.6180   -8.3230   -3.1340 C.3       1 SAP1        0.0000
     53 H2X        -4.9650   -9.2440   -2.6280 H         1 SAP1        0.0000
     54 H2Y        -3.5070   -8.3350   -3.1820 H         1 SAP1        0.0000
     55 C23        -5.2730   -3.1030   -5.3650 C.3       1 SAP1        0.0000
     56 H3R        -5.1420   -4.0180   -5.9860 H         1 SAP1        0.0000
     57 H3S        -5.3190   -2.2300   -6.0570 H         1 SAP1        0.0000
     58 C24        -6.5910   -3.1760   -4.5730 C.3       1 SAP1        0.0000
     59 H4R        -6.6530   -2.2890   -3.9050 H         1 SAP1        0.0000
     60 H4S        -6.5550   -4.0680   -3.9040 H         1 SAP1        0.0000
     61 C25        -7.8010   -3.2240   -5.4730 C.2       1 SAP1        0.0000
     62 H5R        -8.2650   -2.2500   -5.6890 H         1 SAP1        0.0000
     63 C26        -8.3430   -4.3400   -5.9970 C.2       1 SAP1        0.0000
     64 H6R        -9.2370   -4.2530   -6.6350 H         1 SAP1        0.0000
     65 C27        -7.8170   -5.7420   -5.8190 C.3       1 SAP1        0.0000
     66 H7R        -6.7470   -5.7220   -5.5180 H         1 SAP1        0.0000
     67 H7S        -7.8240   -6.2520   -6.8040 H         1 SAP1        0.0000
     68 C28        -8.5680   -6.5650   -4.8020 C.2       1 SAP1        0.0000
     69 H8R        -8.1370   -6.5310   -3.7870 H         1 SAP1        0.0000
     70 C29        -9.6580   -7.3270   -5.0270 C.2       1 SAP1        0.0000
     71 H9R       -10.0890   -7.8860   -4.1810 H         1 SAP1        0.0000
     72 C210      -10.4060   -7.4750   -6.3310 C.3       1 SAP1        0.0000
     73 H10R      -10.5770   -6.4640   -6.7610 H         1 SAP1        0.0000
     74 H10S      -11.4240   -7.8620   -6.1110 H         1 SAP1        0.0000
     75 C211       -9.7290   -8.3180   -7.3880 C.2       1 SAP1        0.0000
     76 H11R       -8.8580   -7.8370   -7.8570 H         1 SAP1        0.0000
     77 C212      -10.0940   -9.5410   -7.8190 C.2       1 SAP1        0.0000
     78 H12R       -9.5200  -10.0070   -8.6350 H         1 SAP1        0.0000
     79 C213      -11.2430  -10.3790   -7.3110 C.3       1 SAP1        0.0000
     80 H13R      -11.6390   -9.9900   -6.3480 H         1 SAP1        0.0000
     81 H13S      -10.8630  -11.3980   -7.0710 H         1 SAP1        0.0000
     82 C214      -12.3600  -10.4550   -8.3230 C.2       1 SAP1        0.0000
     83 H14R      -13.1470   -9.6950   -8.1970 H         1 SAP1        0.0000
     84 C215      -12.4730  -11.3510   -9.3250 C.2       1 SAP1        0.0000
     85 H15R      -13.3400  -11.2860   -9.9990 H         1 SAP1        0.0000
     86 C216      -11.4910  -12.4540   -9.6470 C.3       1 SAP1        0.0000
     87 H16R      -11.9370  -13.4400   -9.3880 H         1 SAP1        0.0000
     88 H16S      -10.5530  -12.3580   -9.0550 H         1 SAP1        0.0000
     89 C217      -11.1030  -12.4790  -11.1370 C.3       1 SAP1        0.0000
     90 H17R      -10.7240  -11.4790  -11.4440 H         1 SAP1        0.0000
     91 H17S      -12.0050  -12.7060  -11.7480 H         1 SAP1        0.0000
     92 C218      -10.0180  -13.5200  -11.4580 C.3       1 SAP1        0.0000
     93 H18R      -10.3380  -14.5160  -11.0780 H         1 SAP1        0.0000
     94 H18S       -9.0790  -13.2430  -10.9290 H         1 SAP1        0.0000
     95 C219       -9.7470  -13.6210  -12.9660 C.3       1 SAP1        0.0000
     96 H19R       -9.5120  -12.6030  -13.3520 H         1 SAP1        0.0000
     97 H19S      -10.6840  -13.9600  -13.4660 H         1 SAP1        0.0000
     98 C220       -8.6080  -14.5730  -13.3430 C.3       1 SAP1        0.0000
     99 H20R       -8.8060  -15.5970  -12.9580 H         1 SAP1        0.0000
    100 H20S       -7.6450  -14.2150  -12.9200 H         1 SAP1        0.0000
    101 H20T       -8.5050  -14.6300  -14.4490 H         1 SAP1        0.0000
    102 C33        -5.1610   -8.2450   -4.5770 C.3       1 SAP1        0.0000
    103 H3X        -5.0840   -7.1890   -4.9280 H         1 SAP1        0.0000
    104 H3Y        -6.2340   -8.5350   -4.6040 H         1 SAP1        0.0000
    105 C34        -4.3430   -9.1100   -5.5470 C.3       1 SAP1        0.0000
    106 H4X        -4.3010  -10.1520   -5.1590 H         1 SAP1        0.0000
    107 H4Y        -3.3010   -8.7170   -5.5810 H         1 SAP1        0.0000
    108 C35        -4.9090   -9.1370   -6.9740 C.3       1 SAP1        0.0000
    109 H5X        -5.9320   -9.5740   -6.9320 H         1 SAP1        0.0000
    110 H5Y        -4.2820   -9.8050   -7.6060 H         1 SAP1        0.0000
    111 C36        -4.9930   -7.7590   -7.6500 C.3       1 SAP1        0.0000
    112 H6X        -3.9750   -7.3280   -7.7730 H         1 SAP1        0.0000
    113 H6Y        -5.5710   -7.0690   -7.0000 H         1 SAP1        0.0000
    114 C37        -5.7090   -7.8370   -9.0030 C.3       1 SAP1        0.0000
    115 H7X        -6.6200   -8.4590   -8.8530 H         1 SAP1        0.0000
    116 H7Y        -5.0590   -8.3500   -9.7450 H         1 SAP1        0.0000
    117 C38        -6.1440   -6.4640   -9.5370 C.3       1 SAP1        0.0000
    118 H8X        -5.2540   -5.8050   -9.6420 H         1 SAP1        0.0000
    119 H8Y        -6.8140   -5.9950   -8.7830 H         1 SAP1        0.0000
    120 C39        -6.8940   -6.5440  -10.8760 C.3       1 SAP1        0.0000
    121 H9X        -6.1800   -6.8330  -11.6790 H         1 SAP1        0.0000
    122 H9Y        -7.2920   -5.5330  -11.1230 H         1 SAP1        0.0000
    123 C310       -8.0510   -7.5540  -10.8570 C.3       1 SAP1        0.0000
    124 H10X       -8.6520   -7.4000   -9.9350 H         1 SAP1        0.0000
    125 H10Y       -7.6350   -8.5870  -10.8240 H         1 SAP1        0.0000
    126 C311       -8.9900   -7.4340  -12.0610 C.3       1 SAP1        0.0000
    127 H11X       -8.3950   -7.4710  -13.0000 H         1 SAP1        0.0000
    128 H11Y       -9.5040   -6.4480  -12.0200 H         1 SAP1        0.0000
    129 C312      -10.0410   -8.5510  -12.0850 C.3       1 SAP1        0.0000
    130 H12X      -10.5850   -8.5680  -11.1130 H         1 SAP1        0.0000
    131 H12Y       -9.5230   -9.5300  -12.1980 H         1 SAP1        0.0000
    132 C313      -11.0530   -8.3800  -13.2240 C.3       1 SAP1        0.0000
    133 H13X      -10.5020   -8.3040  -14.1880 H         1 SAP1        0.0000
    134 H13Y      -11.6100   -7.4280  -13.0740 H         1 SAP1        0.0000
    135 C314      -12.0520   -9.5400  -13.3130 C.3       1 SAP1        0.0000
    136 H14X      -12.5990   -9.6310  -12.3480 H         1 SAP1        0.0000
    137 H14Y      -11.4930  -10.4890  -13.4790 H         1 SAP1        0.0000
    138 C315      -13.0560   -9.3450  -14.4560 C.3       1 SAP1        0.0000
    139 H15X      -12.4940   -9.2120  -15.4070 H         1 SAP1        0.0000
    140 H15Y      -13.6370   -8.4120  -14.2750 H         1 SAP1        0.0000
    141 C316      -14.0240  -10.5240  -14.6130 C.3       1 SAP1        0.0000
    142 H16X      -14.6030  -10.6550  -13.6720 H         1 SAP1        0.0000
    143 H16Y      -13.4360  -11.4550  -14.7810 H         1 SAP1        0.0000
    144 C317      -14.9950  -10.3250  -15.7850 C.3       1 SAP1        0.0000
    145 H17X      -14.4010  -10.1530  -16.7120 H         1 SAP1        0.0000
    146 H17Y      -15.5960   -9.4060  -15.5990 H         1 SAP1        0.0000
    147 C318      -15.9390  -11.5080  -16.0130 C.3       1 SAP1        0.0000
    148 H18X      -16.5590  -11.6940  -15.1100 H         1 SAP1        0.0000
    149 H18Y      -15.3610  -12.4300  -16.2390 H         1 SAP1        0.0000
    150 H18Z      -16.6180  -11.3030  -16.8690 H         1 SAP1        0.0000
@<TRIPOS>BOND
     1  150  147 1 
     2  145  144 1 
     3  149  147 1 
     4  147  144 1 
     5  147  148 1 
     6  144  146 1 
     7  144  141 1 
     8  139  138 1 
     9  143  141 1 
    10  141  138 1 
    11  141  142 1 
    12  138  140 1 
    13  138  135 1 
    14  101   98 1 
    15  133  132 1 
    16  137  135 1 
    17   97   95 1 
    18   96   95 1 
    19   98   95 1 
    20   98   99 1 
    21   98  100 1 
    22  135  132 1 
    23  135  136 1 
    24  132  134 1 
    25  132  129 1 
    26  127  126 1 
    27   95   92 1 
    28  131  129 1 
    29  129  126 1 
    30  129  130 1 
    31  126  128 1 
    32  126  123 1 
    33   91   89 1 
    34  121  120 1 
    35   92   89 1 
    36   92   93 1 
    37   92   94 1 
    38   90   89 1 
    39   89   86 1 
    40  122  120 1 
    41  120  123 1 
    42  120  117 1 
    43  123  125 1 
    44  123  124 1 
    45   85   84 1 
    46  116  114 1 
    47   86   87 1 
    48   86   84 1 
    49   86   88 1 
    50  118  117 1 
    51  117  114 1 
    52  117  119 1 
    53   84   82 2 
    54  114  115 1 
    55  114  111 1 
    56   78   77 1 
    57   82   83 1 
    58   82   79 1 
    59   76   75 1 
    60   77   75 2 
    61   77   79 1 
    62  112  111 1 
    63  111  113 1 
    64  111  108 1 
    65  110  108 1 
    66   75   72 1 
    67   79   81 1 
    68   79   80 1 
    69  108  109 1 
    70  108  105 1 
    71   67   65 1 
    72   73   72 1 
    73   64   63 1 
    74   72   74 1 
    75   72   70 1 
    76   57   55 1 
    77   63   65 1 
    78   63   61 2 
    79   56   55 1 
    80   65   66 1 
    81   65   68 1 
    82   62   61 1 
    83  107  105 1 
    84  105  106 1 
    85  105  102 1 
    86   61   58 1 
    87   55   58 1 
    88   55   43 1 
    89   44   43 1 
    90   70   68 2 
    91   70   71 1 
    92  103  102 1 
    93   68   69 1 
    94  104  102 1 
    95  102   52 1 
    96   58   59 1 
    97   58   60 1 
    98   43   45 1 
    99   43   41 1 
   100   42   41 2 
   101   41   40 1 
   102   54   52 1 
   103   52   53 1 
   104   52   50 1 
   105   32   30 2 
   106   51   50 2 
   107   40   38 1 
   108   31   30 1 
   109   50   49 1 
   110   39   38 1 
   111   30   34 1 
   112   30   33 1 
   113   38   46 1 
   114   38   35 1 
   115   16   12 2 
   116   49   46 1 
   117   34   35 1 
   118   29   28 1 
   119    6    5 1 
   120   46   47 1 
   121   46   48 1 
   122    2    1 1 
   123   35   36 1 
   124   35   37 1 
   125   15   12 1 
   126   33   28 1 
   127   12   13 1 
   128   12   11 1 
   129   28    1 1 
   130   28   24 1 
   131    5    7 1 
   132    5    1 1 
   133    5    9 1 
   134    7    8 1 
   135    1    3 1 
   136   18   17 1 
   137   13   14 1 
   138   11    9 1 
   139   26   24 1 
   140   26   27 1 
   141   24   17 1 
   142   24   25 1 
   143    9   17 1 
   144    9   10 1 
   145   17   19 1 
   146    3    4 1 
   147   19   20 1 
   148   22   20 2 
   149   20   21 1 
   150   20   23 1 
