@<TRIPOS>MOLECULE
C:\Users\Praveer\PycharmProjects\pdb_to_mol2_converter\data\pdb\saps.pdb
  133   132     0     0     0
SMALL
GASTEIGER

@<TRIPOS>ATOM
      1 N           0.0530   -0.1640   -0.1260 N.4       1 SAP1        0.0000
      2 HN1        -0.3820    0.3230    0.7070 H         1 SAP1        0.0000
      3 HN2        -0.1770   -1.1710   -0.1830 H         1 SAP1        0.0000
      4 HN3        -0.2460    0.2980   -1.0050 H         1 SAP1        0.0000
      5 C12         1.5390   -0.0170   -0.0600 C.3       1 SAP1        0.0000
      6 H12A        1.8950   -0.5450    0.8120 H         1 SAP1        0.0000
      7 C13         2.1930   -0.6800   -1.2920 C.2       1 SAP1        0.0000
      8 O13A        1.4450   -1.2910   -2.1060 O.co2     1 SAP1        0.0000
      9 O13B        3.4450   -0.7750   -1.2930 O.co2     1 SAP1        0.0000
     10 C11         1.9380    1.4920    0.0490 C.3       1 SAP1        0.0000
     11 H11A        1.5450    2.0620   -0.8270 H         1 SAP1        0.0000
     12 H11B        3.0490    1.5430   -0.0280 H         1 SAP1        0.0000
     13 P           0.1020    2.6480    1.5280 P.3       1 SAP1        0.0000
     14 O13        -0.2770    3.4630    0.3580 O.2       1 SAP1        0.0000
     15 O14        -0.7530    1.4650    1.7920 O.3       1 SAP1        0.0000
     16 O12         1.5610    2.0850    1.3040 O.3       1 SAP1        0.0000
     17 O11         0.1910    3.5630    2.8250 O.3       1 SAP1        0.0000
     18 C1         -1.0300    4.2440    3.1490 C.3       1 SAP1        0.0000
     19 HA         -1.8680    3.5160    3.2710 H         1 SAP1        0.0000
     20 HB         -1.3050    4.9660    2.3410 H         1 SAP1        0.0000
     21 C2         -0.8950    5.0590    4.4610 C.3       1 SAP1        0.0000
     22 HS         -0.6130    4.3640    5.2870 H         1 SAP1        0.0000
     23 O21        -2.1520    5.7150    4.7190 O.3       1 SAP1        0.0000
     24 C21        -3.1030    4.9090    5.1710 C.2       1 SAP1        0.0000
     25 O22        -2.9530    3.7610    5.5440 O.2       1 SAP1        0.0000
     26 C22        -4.4510    5.6260    5.1190 C.3       1 SAP1        0.0000
     27 H2R        -5.1660    4.9270    4.6350 H         1 SAP1        0.0000
     28 H2S        -4.3670    6.5350    4.4910 H         1 SAP1        0.0000
     29 C3          0.2300    6.1260    4.3570 C.3       1 SAP1        0.0000
     30 HX         -0.0930    6.8660    3.5860 H         1 SAP1        0.0000
     31 HY          1.1520    5.6190    3.9910 H         1 SAP1        0.0000
     32 O31         0.4770    6.7550    5.6390 O.3       1 SAP1        0.0000
     33 C31         1.2630    7.8250    5.5600 C.2       1 SAP1        0.0000
     34 O32         1.7290    8.2840    4.5320 O.2       1 SAP1        0.0000
     35 C32         1.5120    8.3840    6.9640 C.3       1 SAP1        0.0000
     36 H2X         1.9970    7.5860    7.5630 H         1 SAP1        0.0000
     37 H2Y         0.5300    8.6280    7.4200 H         1 SAP1        0.0000
     38 C23        -4.9560    5.9790    6.5330 C.3       1 SAP1        0.0000
     39 H3R        -4.9690    5.0620    7.1670 H         1 SAP1        0.0000
     40 H3S        -6.0060    6.3440    6.4480 H         1 SAP1        0.0000
     41 C24        -4.1000    7.0740    7.1910 C.3       1 SAP1        0.0000
     42 H4R        -4.1190    7.9760    6.5380 H         1 SAP1        0.0000
     43 H4S        -3.0420    6.7250    7.2310 H         1 SAP1        0.0000
     44 C25        -4.5760    7.4250    8.5760 C.2       1 SAP1        0.0000
     45 H5R        -5.4870    6.9090    8.9150 H         1 SAP1        0.0000
     46 C26        -3.9640    8.2970    9.3960 C.2       1 SAP1        0.0000
     47 H6R        -4.3900    8.4820   10.3950 H         1 SAP1        0.0000
     48 C27        -2.7030    9.0680    9.0840 C.3       1 SAP1        0.0000
     49 H7R        -2.2310    8.7040    8.1460 H         1 SAP1        0.0000
     50 H7S        -1.9630    8.8600    9.8850 H         1 SAP1        0.0000
     51 C28        -2.9750   10.5450    8.9320 C.2       1 SAP1        0.0000
     52 H8R        -3.7830   10.7920    8.2250 H         1 SAP1        0.0000
     53 C29        -2.3410   11.5570    9.5570 C.2       1 SAP1        0.0000
     54 H9R        -2.6640   12.5880    9.3380 H         1 SAP1        0.0000
     55 C210       -1.2070   11.4500   10.5470 C.3       1 SAP1        0.0000
     56 H10R       -0.8110   10.4160   10.6150 H         1 SAP1        0.0000
     57 H10S       -1.6030   11.6820   11.5580 H         1 SAP1        0.0000
     58 C211       -0.0690   12.3660   10.1640 C.2       1 SAP1        0.0000
     59 H11R        0.3540   12.1690    9.1670 H         1 SAP1        0.0000
     60 C212        0.4620   13.3640   10.8950 C.2       1 SAP1        0.0000
     61 H12R        1.2990   13.9410   10.4680 H         1 SAP1        0.0000
     62 C213        0.0520   13.8030   12.2780 C.3       1 SAP1        0.0000
     63 H13R       -0.8260   13.2410   12.6560 H         1 SAP1        0.0000
     64 H13S       -0.2760   14.8640   12.2250 H         1 SAP1        0.0000
     65 C214        1.1920   13.6200   13.2490 C.2       1 SAP1        0.0000
     66 H14R        1.4260   12.5730   13.4970 H         1 SAP1        0.0000
     67 C215        1.9180   14.6030   13.8070 C.2       1 SAP1        0.0000
     68 H15R        2.7320   14.3460   14.5030 H         1 SAP1        0.0000
     69 C216        1.7060   16.0750   13.5640 C.3       1 SAP1        0.0000
     70 H16R        0.6290   16.3420   13.6670 H         1 SAP1        0.0000
     71 H16S        2.0130   16.3380   12.5280 H         1 SAP1        0.0000
     72 C217        2.5080   16.9410   14.5480 C.3       1 SAP1        0.0000
     73 H17R        3.5930   16.7160   14.4460 H         1 SAP1        0.0000
     74 H17S        2.2050   16.7030   15.5930 H         1 SAP1        0.0000
     75 C218        2.2930   18.4400   14.3040 C.3       1 SAP1        0.0000
     76 H18R        1.2120   18.6790   14.4250 H         1 SAP1        0.0000
     77 H18S        2.5770   18.6830   13.2560 H         1 SAP1        0.0000
     78 C219        3.1100   19.3160   15.2600 C.3       1 SAP1        0.0000
     79 H19R        4.1890   19.0660   15.1430 H         1 SAP1        0.0000
     80 H19S        2.8210   19.0700   16.3080 H         1 SAP1        0.0000
     81 C220        2.9090   20.8140   15.0190 C.3       1 SAP1        0.0000
     82 H20R        1.8400   21.0880   15.1540 H         1 SAP1        0.0000
     83 H20S        3.2110   21.0830   13.9840 H         1 SAP1        0.0000
     84 H20T        3.5180   21.4110   15.7310 H         1 SAP1        0.0000
     85 C33         2.4130    9.6400    6.9340 C.3       1 SAP1        0.0000
     86 H3X         1.8920   10.4510    6.3740 H         1 SAP1        0.0000
     87 H3Y         3.3600    9.4120    6.3910 H         1 SAP1        0.0000
     88 C34         2.7840   10.1610    8.3300 C.3       1 SAP1        0.0000
     89 H4X         3.3740    9.3900    8.8730 H         1 SAP1        0.0000
     90 H4Y         1.8550   10.3420    8.9150 H         1 SAP1        0.0000
     91 C35         3.6000   11.4610    8.2560 C.3       1 SAP1        0.0000
     92 H5X         3.0100   12.2210    7.6960 H         1 SAP1        0.0000
     93 H5Y         4.5350   11.2770    7.6790 H         1 SAP1        0.0000
     94 C36         3.9680   12.0310    9.6320 C.3       1 SAP1        0.0000
     95 H6X         4.5860   11.2910   10.1870 H         1 SAP1        0.0000
     96 H6Y         3.0390   12.1980   10.2180 H         1 SAP1        0.0000
     97 C37         4.7370   13.3560    9.5300 C.3       1 SAP1        0.0000
     98 H7X         4.1470   14.0800    8.9240 H         1 SAP1        0.0000
     99 H7Y         5.6980   13.1760    8.9960 H         1 SAP1        0.0000
    100 C38         5.0250   13.9820   10.9010 C.3       1 SAP1        0.0000
    101 H8X         5.5910   13.2530   11.5240 H         1 SAP1        0.0000
    102 H8Y         4.0620   14.1960   11.4180 H         1 SAP1        0.0000
    103 C39         5.8360   15.2780   10.7830 C.3       1 SAP1        0.0000
    104 H9X         5.2970   15.9890   10.1160 H         1 SAP1        0.0000
    105 H9Y         6.8170   15.0460   10.3090 H         1 SAP1        0.0000
    106 C310        6.0850   15.9590   12.1340 C.3       1 SAP1        0.0000
    107 H10X        6.5730   15.2370   12.8270 H         1 SAP1        0.0000
    108 H10Y        5.1120   16.2580   12.5840 H         1 SAP1        0.0000
    109 C311        6.9810   17.1940   11.9850 C.3       1 SAP1        0.0000
    110 H11X        6.4930   17.9200   11.2980 H         1 SAP1        0.0000
    111 H11Y        7.9450   16.8860   11.5210 H         1 SAP1        0.0000
    112 C312        7.2760   17.8850   13.3190 C.3       1 SAP1        0.0000
    113 H12X        7.7530   17.1570   14.0120 H         1 SAP1        0.0000
    114 H12Y        6.3190   18.2160   13.7810 H         1 SAP1        0.0000
    115 C313        8.2020   19.0950   13.1520 C.3       1 SAP1        0.0000
    116 H13X        7.7250   19.8290   12.4650 H         1 SAP1        0.0000
    117 H13Y        9.1560   18.7640   12.6830 H         1 SAP1        0.0000
    118 C314        8.5060   19.7750   14.4900 C.3       1 SAP1        0.0000
    119 H14X        8.9840   19.0350   15.1710 H         1 SAP1        0.0000
    120 H14Y        7.5480   20.0960   14.9580 H         1 SAP1        0.0000
    121 C315        9.4270   20.9920   14.3510 C.3       1 SAP1        0.0000
    122 H15X        8.9520   21.7360   13.6720 H         1 SAP1        0.0000
    123 H15Y       10.3890   20.6750   13.8890 H         1 SAP1        0.0000
    124 C316        9.7080   21.6500   15.7080 C.3       1 SAP1        0.0000
    125 H16X       10.1840   20.9020   16.3820 H         1 SAP1        0.0000
    126 H16Y        8.7410   21.9560   16.1690 H         1 SAP1        0.0000
    127 C317       10.6190   22.8770   15.5960 C.3       1 SAP1        0.0000
    128 H17X       10.1400   23.6170   14.9150 H         1 SAP1        0.0000
    129 H17Y       11.5820   22.5650   15.1320 H         1 SAP1        0.0000
    130 C318       10.9040   23.5470   16.9420 C.3       1 SAP1        0.0000
    131 H18X       11.4070   22.8340   17.6310 H         1 SAP1        0.0000
    132 H18Y        9.9570   23.8880   17.4140 H         1 SAP1        0.0000
    133 H18Z       11.5660   24.4290   16.8070 H         1 SAP1        0.0000
@<TRIPOS>BOND
     1    8    7 ar
     2    9    7 ar
     3    7    5 1 
     4    4    1 1 
     5   11   10 1 
     6    3    1 1 
     7    1    5 1 
     8    1    2 1 
     9    5   10 1 
    10    5    6 1 
    11   12   10 1 
    12   10   16 1 
    13   14   13 2 
    14   16   13 1 
    15   13   15 1 
    16   13   17 1 
    17   20   18 1 
    18   17   18 1 
    19   18   19 1 
    20   18   21 1 
    21   30   29 1 
    22   31   29 1 
    23   29   21 1 
    24   29   32 1 
    25   21   23 1 
    26   21   22 1 
    27   28   26 1 
    28   34   33 2 
    29   27   26 1 
    30   23   24 1 
    31   26   24 1 
    32   26   38 1 
    33   24   25 2 
    34   33   32 1 
    35   33   35 1 
    36   86   85 1 
    37   87   85 1 
    38   40   38 1 
    39   38   39 1 
    40   38   41 1 
    41   42   41 1 
    42   85   35 1 
    43   85   88 1 
    44   35   37 1 
    45   35   36 1 
    46   41   43 1 
    47   41   44 1 
    48   93   91 1 
    49   92   91 1 
    50   49   48 1 
    51   52   51 1 
    52   91   88 1 
    53   91   94 1 
    54   88   89 1 
    55   88   90 1 
    56   44   45 1 
    57   44   46 2 
    58   98   97 1 
    59   51   48 1 
    60   51   53 2 
    61   99   97 1 
    62   48   46 1 
    63   48   50 1 
    64   59   58 1 
    65   54   53 1 
    66   46   47 1 
    67   97   94 1 
    68   97  100 1 
    69   53   55 1 
    70   94   95 1 
    71   94   96 1 
    72  104  103 1 
    73   58   55 1 
    74   58   60 2 
    75  105  103 1 
    76   61   60 1 
    77   55   56 1 
    78   55   57 1 
    79  103  100 1 
    80  103  106 1 
    81   60   62 1 
    82  100  102 1 
    83  100  101 1 
    84  110  109 1 
    85  111  109 1 
    86  109  106 1 
    87  109  112 1 
    88  106  108 1 
    89  106  107 1 
    90   64   62 1 
    91   62   63 1 
    92   62   65 1 
    93  116  115 1 
    94   71   69 1 
    95  117  115 1 
    96  115  112 1 
    97  115  118 1 
    98   65   66 1 
    99   65   67 2 
   100   77   75 1 
   101  112  114 1 
   102  112  113 1 
   103   69   70 1 
   104   69   67 1 
   105   69   72 1 
   106  122  121 1 
   107   67   68 1 
   108  123  121 1 
   109   83   81 1 
   110   75   76 1 
   111   75   72 1 
   112   75   78 1 
   113  121  118 1 
   114  121  124 1 
   115   73   72 1 
   116  118  120 1 
   117  118  119 1 
   118   72   74 1 
   119  128  127 1 
   120   81   82 1 
   121   81   78 1 
   122   81   84 1 
   123  129  127 1 
   124   79   78 1 
   125   78   80 1 
   126  127  124 1 
   127  127  130 1 
   128  124  126 1 
   129  124  125 1 
   130  133  130 1 
   131  130  132 1 
   132  130  131 1 
