@<TRIPOS>MOLECULE
C:\Users\Praveer\PycharmProjects\pdb_to_mol2_converter\data\pdb\sb3-14.pdb
   65    64     0     0     0
SMALL
GASTEIGER

@<TRIPOS>ATOM
      1 S           2.3340    1.6510   -0.0500 S.3       1 SB31        0.0000
      2 O1          3.6470    1.4910    0.7270 O.3       1 SB31        0.0000
      3 O2          1.3290    2.6120    0.6170 O.3       1 SB31        0.0000
      4 O3          2.5490    1.9750   -1.5430 O.3       1 SB31        0.0000
      5 C25         1.5450    0.0180    0.0020 C.3       1 SB31        0.0000
      6 H25A        1.8680   -0.4050    0.9760 H         1 SB31        0.0000
      7 H25B        1.9730   -0.6100   -0.7980 H         1 SB31        0.0000
      8 C24        -0.0110    0.0420    0.0030 C.3       1 SB31        0.0000
      9 H24A       -0.3890    0.9040    0.5920 H         1 SB31        0.0000
     10 H24B       -0.3090   -0.8590    0.5930 H         1 SB31        0.0000
     11 N          -0.6970    1.0300   -2.3590 N.4       1 SB31        0.0000
     12 C1          0.5800    0.9020   -3.1760 C.3       1 SB31        0.0000
     13 C21        -1.8940    1.0040   -3.2700 C.3       1 SB31        0.0000
     14 C22        -0.6850    2.3570   -1.6430 C.3       1 SB31        0.0000
     15 C23        -0.7750   -0.0970   -1.3440 C.3       1 SB31        0.0000
     16 H1A         1.4330    0.9280   -2.4900 H         1 SB31        0.0000
     17 H1B         0.7070    1.8010   -3.7710 H         1 SB31        0.0000
     18 H21A       -1.9380    0.0680   -3.8130 H         1 SB31        0.0000
     19 H21B       -1.8310    1.8050   -3.9980 H         1 SB31        0.0000
     20 H21C       -2.8120    1.1320   -2.7120 H         1 SB31        0.0000
     21 H22A       -0.5970    3.1920   -2.3200 H         1 SB31        0.0000
     22 H22B        0.1840    2.4110   -0.9740 H         1 SB31        0.0000
     23 H22C       -1.5500    2.4860   -1.0110 H         1 SB31        0.0000
     24 H23A       -1.8190   -0.2340   -1.0800 H         1 SB31        0.0000
     25 H23B       -0.4560   -1.0130   -1.8280 H         1 SB31        0.0000
     26 C2          0.7330   -0.3360   -4.0910 C.3       1 SB31        0.0000
     27 H2A         1.3620   -0.0280   -4.9600 H         1 SB31        0.0000
     28 H2B        -0.2380   -0.6740   -4.5030 H         1 SB31        0.0000
     29 C3          1.4620   -1.5130   -3.4250 C.3       1 SB31        0.0000
     30 H3A         0.9160   -1.8530   -2.5210 H         1 SB31        0.0000
     31 H3B         2.4700   -1.1710   -3.0930 H         1 SB31        0.0000
     32 C4          1.6330   -2.7190   -4.3580 C.3       1 SB31        0.0000
     33 H4A         2.2140   -2.4160   -5.2580 H         1 SB31        0.0000
     34 H4B         0.6310   -3.0630   -4.7000 H         1 SB31        0.0000
     35 C5          2.3500   -3.8840   -3.6630 C.3       1 SB31        0.0000
     36 H5A         1.8070   -4.1340   -2.7240 H         1 SB31        0.0000
     37 H5B         3.3790   -3.5650   -3.3810 H         1 SB31        0.0000
     38 C6          2.4320   -5.1460   -4.5320 C.3       1 SB31        0.0000
     39 H6A         2.9960   -4.9200   -5.4640 H         1 SB31        0.0000
     40 H6B         1.4020   -5.4520   -4.8240 H         1 SB31        0.0000
     41 C7          3.1080   -6.3110   -3.7970 C.3       1 SB31        0.0000
     42 H7A         2.5750   -6.4880   -2.8350 H         1 SB31        0.0000
     43 H7B         4.1570   -6.0310   -3.5540 H         1 SB31        0.0000
     44 C8          3.1040   -7.6150   -4.6070 C.3       1 SB31        0.0000
     45 H8A         3.6500   -7.4570   -5.5640 H         1 SB31        0.0000
     46 H8B         2.0530   -7.8840   -4.8550 H         1 SB31        0.0000
     47 C9          3.7490   -8.7770   -3.8390 C.3       1 SB31        0.0000
     48 H9A         3.2270   -8.8990   -2.8630 H         1 SB31        0.0000
     49 H9B         4.8120   -8.5280   -3.6250 H         1 SB31        0.0000
     50 C10         3.6850  -10.1060   -4.6040 C.3       1 SB31        0.0000
     51 H10A        4.2090   -9.9940   -5.5790 H         1 SB31        0.0000
     52 H10B        2.6210  -10.3520   -4.8170 H         1 SB31        0.0000
     53 C11         4.3200  -11.2630   -3.8200 C.3       1 SB31        0.0000
     54 H11A        3.8080  -11.3580   -2.8360 H         1 SB31        0.0000
     55 H11B        5.3890  -11.0260   -3.6220 H         1 SB31        0.0000
     56 C12         4.2290  -12.6040   -4.5600 C.3       1 SB31        0.0000
     57 H12A        4.7400  -12.5130   -5.5450 H         1 SB31        0.0000
     58 H12B        3.1590  -12.8410   -4.7550 H         1 SB31        0.0000
     59 C13         4.8620  -13.7570   -3.7710 C.3       1 SB31        0.0000
     60 H13A        4.3540  -13.8360   -2.7830 H         1 SB31        0.0000
     61 H13B        5.9320  -13.5130   -3.5770 H         1 SB31        0.0000
     62 C14         4.7750  -15.1060   -4.4900 C.3       1 SB31        0.0000
     63 H14A        5.2970  -15.0580   -5.4700 H         1 SB31        0.0000
     64 H14B        3.7140  -15.3820   -4.6710 H         1 SB31        0.0000
     65 H14C        5.2470  -15.9050   -3.8800 H         1 SB31        0.0000
@<TRIPOS>BOND
     1   51   50 1 
     2   45   44 1 
     3   57   56 1 
     4   63   62 1 
     5   39   38 1 
     6   33   32 1 
     7   27   26 1 
     8   46   44 1 
     9   40   38 1 
    10   52   50 1 
    11   58   56 1 
    12   34   32 1 
    13   64   62 1 
    14   44   47 1 
    15   44   41 1 
    16   50   47 1 
    17   50   53 1 
    18   56   53 1 
    19   56   59 1 
    20   38   41 1 
    21   38   35 1 
    22   28   26 1 
    23   62   65 1 
    24   62   59 1 
    25   32   35 1 
    26   32   29 1 
    27   26   29 1 
    28   26   12 1 
    29   19   13 1 
    30   47   49 1 
    31   47   48 1 
    32   53   55 1 
    33   53   54 1 
    34   18   13 1 
    35   41   43 1 
    36   41   42 1 
    37   17   12 1 
    38   59   61 1 
    39   59   60 1 
    40   35   37 1 
    41   35   36 1 
    42   29   31 1 
    43   29   30 1 
    44   13   20 1 
    45   13   11 1 
    46   12   16 1 
    47   12   11 1 
    48   11   14 1 
    49   11   15 1 
    50   21   14 1 
    51   25   15 1 
    52   14   23 1 
    53   14   22 1 
    54    4    1 1 
    55   15   24 1 
    56   15    8 1 
    57    7    5 1 
    58    1    5 1 
    59    1    3 1 
    60    1    2 1 
    61    5    8 1 
    62    5    6 1 
    63    8    9 1 
    64    8   10 1 
