@<TRIPOS>MOLECULE
C:\Users\Praveer\PycharmProjects\pdb_to_mol2_converter\data\pdb\sb3-12.pdb
   59    58     0     0     0
SMALL
GASTEIGER

@<TRIPOS>ATOM
      1 S           2.3230    1.6840   -0.0450 S.3       1 SB31        0.0000
      2 O1          3.6300    1.5330    0.7430 O.3       1 SB31        0.0000
      3 O2          1.3110    2.6490    0.6070 O.3       1 SB31        0.0000
      4 O3          2.5490    1.9980   -1.5380 O.3       1 SB31        0.0000
      5 C25         1.5370    0.0500    0.0120 C.3       1 SB31        0.0000
      6 H25A        1.8570   -0.3680    0.9910 H         1 SB31        0.0000
      7 H25B        1.9700   -0.5840   -0.7810 H         1 SB31        0.0000
      8 C24        -0.0190    0.0680    0.0050 C.3       1 SB31        0.0000
      9 H24A       -0.4020    0.9310    0.5890 H         1 SB31        0.0000
     10 H24B       -0.3160   -0.8330    0.5950 H         1 SB31        0.0000
     11 N          -0.6980    1.0500   -2.3630 N.4       1 SB31        0.0000
     12 C1          0.5830    0.9260   -3.1750 C.3       1 SB31        0.0000
     13 C21        -1.8910    1.0150   -3.2790 C.3       1 SB31        0.0000
     14 C22        -0.6950    2.3770   -1.6490 C.3       1 SB31        0.0000
     15 C23        -0.7740   -0.0770   -1.3470 C.3       1 SB31        0.0000
     16 H1A         1.4320    0.9550   -2.4860 H         1 SB31        0.0000
     17 H1B         0.7090    1.8240   -3.7720 H         1 SB31        0.0000
     18 H21A       -1.9280    0.0770   -3.8200 H         1 SB31        0.0000
     19 H21B       -1.8290    1.8140   -4.0080 H         1 SB31        0.0000
     20 H21C       -2.8120    1.1400   -2.7250 H         1 SB31        0.0000
     21 H22A       -0.6080    3.2130   -2.3260 H         1 SB31        0.0000
     22 H22B        0.1720    2.4360   -0.9770 H         1 SB31        0.0000
     23 H22C       -1.5630    2.5040   -1.0200 H         1 SB31        0.0000
     24 H23A       -1.8190   -0.2210   -1.0890 H         1 SB31        0.0000
     25 H23B       -0.4460   -0.9910   -1.8280 H         1 SB31        0.0000
     26 C2          0.7430   -0.3140   -4.0870 C.3       1 SB31        0.0000
     27 H2A         1.3650   -0.0030   -4.9590 H         1 SB31        0.0000
     28 H2B        -0.2270   -0.6620   -4.4930 H         1 SB31        0.0000
     29 C3          1.4830   -1.4830   -3.4190 C.3       1 SB31        0.0000
     30 H3A         0.9520   -1.8130   -2.5020 H         1 SB31        0.0000
     31 H3B         2.4960   -1.1360   -3.1060 H         1 SB31        0.0000
     32 C4          1.6390   -2.7000   -4.3400 C.3       1 SB31        0.0000
     33 H4A         2.2060   -2.4090   -5.2530 H         1 SB31        0.0000
     34 H4B         0.6310   -3.0470   -4.6610 H         1 SB31        0.0000
     35 C5          2.3650   -3.8570   -3.6420 C.3       1 SB31        0.0000
     36 H5A         1.8300   -4.0990   -2.6960 H         1 SB31        0.0000
     37 H5B         3.3960   -3.5330   -3.3720 H         1 SB31        0.0000
     38 C6          2.4420   -5.1260   -4.5010 C.3       1 SB31        0.0000
     39 H6A         3.0150   -4.9130   -5.4310 H         1 SB31        0.0000
     40 H6B         1.4120   -5.4270   -4.7980 H         1 SB31        0.0000
     41 C7          3.1020   -6.2910   -3.7510 C.3       1 SB31        0.0000
     42 H7A         2.5510   -6.4620   -2.7980 H         1 SB31        0.0000
     43 H7B         4.1480   -6.0150   -3.4900 H         1 SB31        0.0000
     44 C8          3.1080   -7.5970   -4.5560 C.3       1 SB31        0.0000
     45 H8A         3.6870   -7.4500   -5.4950 H         1 SB31        0.0000
     46 H8B         2.0620   -7.8530   -4.8380 H         1 SB31        0.0000
     47 C9          3.7110   -8.7660   -3.7640 C.3       1 SB31        0.0000
     48 H9A         3.1540   -8.8780   -2.8060 H         1 SB31        0.0000
     49 H9B         4.7690   -8.5300   -3.5140 H         1 SB31        0.0000
     50 C10         3.6560  -10.0960   -4.5270 C.3       1 SB31        0.0000
     51 H10A        4.2110   -9.9920   -5.4860 H         1 SB31        0.0000
     52 H10B        2.5960  -10.3300   -4.7740 H         1 SB31        0.0000
     53 C11         4.2510  -11.2610   -3.7250 C.3       1 SB31        0.0000
     54 H11A        3.7070  -11.3420   -2.7560 H         1 SB31        0.0000
     55 H11B        5.3150  -11.0280   -3.4920 H         1 SB31        0.0000
     56 C12         4.1760  -12.6030   -4.4570 C.3       1 SB31        0.0000
     57 H12A        4.7280  -12.5520   -5.4200 H         1 SB31        0.0000
     58 H12B        3.1190  -12.8700   -4.6720 H         1 SB31        0.0000
     59 H12C        4.6230  -13.4110   -3.8380 H         1 SB31        0.0000
@<TRIPOS>BOND
     1   45   44 1 
     2   51   50 1 
     3   39   38 1 
     4   57   56 1 
     5   33   32 1 
     6   27   26 1 
     7   46   44 1 
     8   40   38 1 
     9   52   50 1 
    10   58   56 1 
    11   34   32 1 
    12   44   47 1 
    13   44   41 1 
    14   50   47 1 
    15   50   53 1 
    16   38   41 1 
    17   38   35 1 
    18   28   26 1 
    19   56   59 1 
    20   56   53 1 
    21   32   35 1 
    22   32   29 1 
    23   26   29 1 
    24   26   12 1 
    25   19   13 1 
    26   18   13 1 
    27   17   12 1 
    28   47   49 1 
    29   47   48 1 
    30   41   43 1 
    31   41   42 1 
    32   53   55 1 
    33   53   54 1 
    34   35   37 1 
    35   35   36 1 
    36   29   31 1 
    37   29   30 1 
    38   13   20 1 
    39   13   11 1 
    40   12   16 1 
    41   12   11 1 
    42   11   14 1 
    43   11   15 1 
    44   21   14 1 
    45   25   15 1 
    46   14   23 1 
    47   14   22 1 
    48    4    1 1 
    49   15   24 1 
    50   15    8 1 
    51    7    5 1 
    52    1    5 1 
    53    1    3 1 
    54    1    2 1 
    55    8    5 1 
    56    8    9 1 
    57    8   10 1 
    58    5    6 1 
