@<TRIPOS>MOLECULE
C:\Users\Praveer\PycharmProjects\pdb_to_mol2_converter\data\pdb\sch1.pdb
   11    10     0     0     0
SMALL
GASTEIGER

@<TRIPOS>ATOM
      1 C1         -0.0340   -0.0070    0.0630 C.3       1 SCH1        0.0000
      2 H11        -0.5940    0.9160   -0.2190 H         1 SCH1        0.0000
      3 H12        -0.4770   -0.3450    1.0270 H         1 SCH1        0.0000
      4 H13        -0.3220   -0.7790   -0.6850 H         1 SCH1        0.0000
      5 N2          1.4150    0.1070    0.1610 N.2       1 SCH1        0.0000
      6 C3          1.9150    1.2610   -0.0720 C.2       1 SCH1        0.0000
      7 H31         1.2660    2.1150   -0.3280 H         1 SCH1        0.0000
      8 C4          3.3950    1.5060    0.0020 C.3       1 SCH1        0.0000
      9 H41         3.9460    0.5710    0.2470 H         1 SCH1        0.0000
     10 H42         3.6360    2.2520    0.7880 H         1 SCH1        0.0000
     11 H43         3.7820    1.8810   -0.9690 H         1 SCH1        0.0000
@<TRIPOS>BOND
     1   11    8 1 
     2    4    1 1 
     3    7    6 1 
     4    2    1 1 
     5    6    8 1 
     6    6    5 2 
     7    8    9 1 
     8    8   10 1 
     9    1    5 1 
    10    1    3 1 
