@<TRIPOS>MOLECULE
C:\Users\Praveer\PycharmProjects\pdb_to_mol2_converter\data\pdb\sch2.pdb
   12    11     0     0     0
SMALL
GASTEIGER

@<TRIPOS>ATOM
      1 C1         -0.0210   -0.0160    0.0020 C.3       1 SCH1        0.0000
      2 H11        -0.3920   -0.5610    0.9000 H         1 SCH1        0.0000
      3 H12        -0.3930   -0.5610   -0.8960 H         1 SCH1        0.0000
      4 H13        -0.5010    0.9900    0.0020 H         1 SCH1        0.0000
      5 N2          1.4510    0.0450    0.0010 N.2       1 SCH1        0.0000
      6 H21         1.9470   -0.8280    0.0010 H         1 SCH1        0.0000
      7 C3          2.1710    1.1150    0.0010 C.2       1 SCH1        0.0000
      8 H31         1.6210    2.0760    0.0010 H         1 SCH1        0.0000
      9 C4          3.6740    1.1060   -0.0000 C.3       1 SCH1        0.0000
     10 H41         4.0990    0.0780   -0.0000 H         1 SCH1        0.0000
     11 H42         4.0760    1.6290    0.8960 H         1 SCH1        0.0000
     12 H43         4.0750    1.6290   -0.8960 H         1 SCH1        0.0000
@<TRIPOS>BOND
     1    3    1 1 
     2   12    9 1 
     3    9   10 1 
     4    9    7 1 
     5    9   11 1 
     6    5    6 1 
     7    5    7 2 
     8    5    1 1 
     9    7    8 1 
    10    1    4 1 
    11    1    2 1 
