@<TRIPOS>MOLECULE
C:\Users\Praveer\PycharmProjects\pdb_to_mol2_converter\data\pdb\sch3.pdb
   13    12     0     0     0
SMALL
GASTEIGER

@<TRIPOS>ATOM
      1 C1         -0.0320   -0.0380    0.0020 C.3       1 SCH1        0.0000
      2 H11        -0.4000   -0.5850    0.9000 H         1 SCH1        0.0000
      3 H12        -0.4000   -0.5850   -0.8960 H         1 SCH1        0.0000
      4 H13        -0.5190    0.9650    0.0020 H         1 SCH1        0.0000
      5 N2          1.4390    0.0340    0.0010 N.2       1 SCH1        0.0000
      6 H21         1.9400   -0.8360    0.0010 H         1 SCH1        0.0000
      7 C3          2.1500    1.1130    0.0010 C.2       1 SCH1        0.0000
      8 H31         1.5920    2.0670    0.0010 H         1 SCH1        0.0000
      9 C4          3.6250    1.1440    0.0000 C.2       1 SCH1        0.0000
     10 H41         4.1590    0.1780   -0.0000 H         1 SCH1        0.0000
     11 C5          4.3790    2.2630   -0.0000 C.2       1 SCH1        0.0000
     12 H51         3.9530    3.2820   -0.0000 H         1 SCH1        0.0000
     13 H52         5.4830    2.2060   -0.0010 H         1 SCH1        0.0000
@<TRIPOS>BOND
     1    3    1 1 
     2   13   11 1 
     3    9   10 1 
     4    9   11 2 
     5    9    7 1 
     6   11   12 1 
     7    5    6 1 
     8    5    7 2 
     9    5    1 1 
    10    7    8 1 
    11    1    4 1 
    12    1    2 1 
