@<TRIPOS>MOLECULE
C:\Users\Praveer\PycharmProjects\pdb_to_mol2_converter\data\pdb\sda.pdb
   47    46     0     0     0
SMALL
GASTEIGER

@<TRIPOS>ATOM
      1 O1          0.0320   -0.0110   -0.1380 O.co2     1 SDA1        0.0000
      2 O2          1.9920   -1.0540   -0.0110 O.co2     1 SDA1        0.0000
      3 C1          1.2900   -0.0130   -0.0700 C.2       1 SDA1        0.0000
      4 C2          1.9780    1.3530   -0.0600 C.3       1 SDA1        0.0000
      5 H2R         1.5760    1.9150    0.8060 H         1 SDA1        0.0000
      6 H2S         1.6830    1.8760   -0.9910 H         1 SDA1        0.0000
      7 C3          3.5190    1.2660    0.0350 C.3       1 SDA1        0.0000
      8 H3R         3.9030    0.6750   -0.8270 H         1 SDA1        0.0000
      9 H3S         3.7900    0.7140    0.9630 H         1 SDA1        0.0000
     10 C4          4.1840    2.6500    0.0490 C.3       1 SDA1        0.0000
     11 H4R         3.7480    3.2300    0.8940 H         1 SDA1        0.0000
     12 H4S         3.9240    3.1760   -0.8970 H         1 SDA1        0.0000
     13 C5          5.7150    2.5730    0.2020 C.3       1 SDA1        0.0000
     14 H5R         6.1110    1.9760   -0.6490 H         1 SDA1        0.0000
     15 H5S         5.9390    2.0020    1.1310 H         1 SDA1        0.0000
     16 C6          6.3350    3.9470    0.2800 C.2       1 SDA1        0.0000
     17 H6R         5.8120    4.6400    0.9570 H         1 SDA1        0.0000
     18 C7          7.4130    4.3950   -0.3940 C.2       1 SDA1        0.0000
     19 H7R         7.7280    5.4380   -0.2330 H         1 SDA1        0.0000
     20 C8          8.2690    3.6050   -1.3580 C.3       1 SDA1        0.0000
     21 H8R         7.9480    3.8440   -2.3960 H         1 SDA1        0.0000
     22 H8S         8.0970    2.5150   -1.2410 H         1 SDA1        0.0000
     23 C9          9.7350    3.9520   -1.2170 C.2       1 SDA1        0.0000
     24 H9R         9.9630    5.0200   -1.3610 H         1 SDA1        0.0000
     25 C10        10.7620    3.1160   -0.9620 C.2       1 SDA1        0.0000
     26 H10R       11.7720    3.5490   -0.8830 H         1 SDA1        0.0000
     27 C11        10.7060    1.6220   -0.7360 C.3       1 SDA1        0.0000
     28 H11R        9.6630    1.2460   -0.7970 H         1 SDA1        0.0000
     29 H11S       11.0330    1.4120    0.3060 H         1 SDA1        0.0000
     30 C12        11.6100    0.8670   -1.6850 C.2       1 SDA1        0.0000
     31 H12R       12.5600    1.3680   -1.9270 H         1 SDA1        0.0000
     32 C13        11.3670   -0.3350   -2.2460 C.2       1 SDA1        0.0000
     33 H13R       12.1210   -0.7500   -2.9330 H         1 SDA1        0.0000
     34 C14        10.1410   -1.1970   -2.0460 C.3       1 SDA1        0.0000
     35 H14R        9.4970   -1.1060   -2.9490 H         1 SDA1        0.0000
     36 H14S        9.5250   -0.8230   -1.1990 H         1 SDA1        0.0000
     37 C15        10.4590   -2.6570   -1.8260 C.2       1 SDA1        0.0000
     38 H15R       11.4940   -2.9690   -2.0390 H         1 SDA1        0.0000
     39 C16         9.5870   -3.5810   -1.3790 C.2       1 SDA1        0.0000
     40 H16R        9.9290   -4.6200   -1.2530 H         1 SDA1        0.0000
     41 C17         8.1350   -3.3470   -1.0400 C.3       1 SDA1        0.0000
     42 H17R        7.8270   -2.2910   -1.2190 H         1 SDA1        0.0000
     43 H17S        7.9600   -3.5490    0.0400 H         1 SDA1        0.0000
     44 C18         7.2210   -4.2590   -1.8710 C.3       1 SDA1        0.0000
     45 H18R        7.4360   -5.3310   -1.6720 H         1 SDA1        0.0000
     46 H18S        7.3500   -4.0650   -2.9580 H         1 SDA1        0.0000
     47 H18T        6.1560   -4.0670   -1.6120 H         1 SDA1        0.0000
@<TRIPOS>BOND
     1   46   44 1 
     2   35   34 1 
     3   33   32 1 
     4   21   20 1 
     5   32   34 1 
     6   32   30 2 
     7   34   37 1 
     8   34   36 1 
     9   38   37 1 
    10   31   30 1 
    11   44   45 1 
    12   44   47 1 
    13   44   41 1 
    14   37   39 2 
    15   30   27 1 
    16   39   40 1 
    17   39   41 1 
    18   24   23 1 
    19   20   22 1 
    20   20   23 1 
    21   20   18 1 
    22   42   41 1 
    23   23   25 2 
    24   41   43 1 
    25    6    4 1 
    26   25   26 1 
    27   25   27 1 
    28   12   10 1 
    29    8    7 1 
    30   28   27 1 
    31   27   29 1 
    32   14   13 1 
    33   18   19 1 
    34   18   16 2 
    35    1    3 ar
    36    3    4 1 
    37    3    2 ar
    38    4    7 1 
    39    4    5 1 
    40    7   10 1 
    41    7    9 1 
    42   10   13 1 
    43   10   11 1 
    44   13   16 1 
    45   13   15 1 
    46   16   17 1 
