@<TRIPOS>MOLECULE
C:\Users\Praveer\PycharmProjects\pdb_to_mol2_converter\data\pdb\sdap.pdb
   48    47     0     0     0
SMALL
GASTEIGER

@<TRIPOS>ATOM
      1 H1         -0.0070    0.0300    0.0320 H         1 SDA1        0.0000
      2 O1          0.9490    0.0230    0.0510 O.3       1 SDA1        0.0000
      3 O2          0.5570    2.2340   -0.0350 O.2       1 SDA1        0.0000
      4 C1          1.3700    1.3310    0.0120 C.2       1 SDA1        0.0000
      5 C2          2.8890    1.4570    0.0330 C.3       1 SDA1        0.0000
      6 H2R         3.2980    0.8870   -0.8280 H         1 SDA1        0.0000
      7 H2S         3.2650    0.9990    0.9710 H         1 SDA1        0.0000
      8 C3          3.3460    2.9290   -0.0520 C.3       1 SDA1        0.0000
      9 H3R         2.9330    3.5050    0.8070 H         1 SDA1        0.0000
     10 H3S         2.9500    3.3900   -0.9860 H         1 SDA1        0.0000
     11 C4          4.8760    3.0620   -0.0490 C.3       1 SDA1        0.0000
     12 H4R         5.2850    2.4500   -0.8860 H         1 SDA1        0.0000
     13 H4S         5.2720    2.6450    0.9050 H         1 SDA1        0.0000
     14 C5          5.3380    4.5230   -0.2070 C.3       1 SDA1        0.0000
     15 H5R         4.8970    5.1150    0.6260 H         1 SDA1        0.0000
     16 H5S         4.9110    4.9240   -1.1530 H         1 SDA1        0.0000
     17 C6          6.8430    4.6280   -0.2430 C.2       1 SDA1        0.0000
     18 H6R         7.3410    3.8520   -0.8450 H         1 SDA1        0.0000
     19 C7          7.6090    5.5370    0.3920 C.2       1 SDA1        0.0000
     20 H7R         8.7020    5.4680    0.2720 H         1 SDA1        0.0000
     21 C8          7.1270    6.6840    1.2510 C.3       1 SDA1        0.0000
     22 H8R         7.2100    6.3890    2.3200 H         1 SDA1        0.0000
     23 H8S         6.0480    6.8830    1.0820 H         1 SDA1        0.0000
     24 C9          7.9610    7.9270    1.0320 C.2       1 SDA1        0.0000
     25 H9R         9.0410    7.7840    1.1980 H         1 SDA1        0.0000
     26 C10         7.5340    9.1580    0.6850 C.2       1 SDA1        0.0000
     27 H10R        8.2890    9.9500    0.5590 H         1 SDA1        0.0000
     28 C11         6.1150    9.6040    0.4160 C.3       1 SDA1        0.0000
     29 H11R        5.4050    8.7540    0.4840 H         1 SDA1        0.0000
     30 H11S        6.0490    9.9590   -0.6360 H         1 SDA1        0.0000
     31 C12         5.7040   10.7320    1.3360 C.2       1 SDA1        0.0000
     32 H12R        6.4920   11.4720    1.5480 H         1 SDA1        0.0000
     33 C13         4.4960   10.9120    1.9060 C.2       1 SDA1        0.0000
     34 H13R        4.3600   11.7800    2.5700 H         1 SDA1        0.0000
     35 C14         3.2740   10.0360    1.7470 C.3       1 SDA1        0.0000
     36 H14R        3.1460    9.4400    2.6780 H         1 SDA1        0.0000
     37 H14S        3.4140    9.2950    0.9300 H         1 SDA1        0.0000
     38 C15         2.0110   10.8270    1.5000 C.2       1 SDA1        0.0000
     39 H15R        2.0710   11.9110    1.6920 H         1 SDA1        0.0000
     40 C16         0.8500   10.3200    1.0450 C.2       1 SDA1        0.0000
     41 H16R       -0.0050   10.9970    0.9000 H         1 SDA1        0.0000
     42 C17         0.5700    8.8710    0.7310 C.3       1 SDA1        0.0000
     43 H17R        1.4110    8.2070    1.0360 H         1 SDA1        0.0000
     44 H17S        0.4400    8.7400   -0.3670 H         1 SDA1        0.0000
     45 C18        -0.7060    8.3960    1.4410 C.3       1 SDA1        0.0000
     46 H18R       -1.5890    8.9850    1.1120 H         1 SDA1        0.0000
     47 H18S       -0.6050    8.4950    2.5440 H         1 SDA1        0.0000
     48 H18T       -0.8990    7.3260    1.2070 H         1 SDA1        0.0000
@<TRIPOS>BOND
     1   16   14 1 
     2   10    8 1 
     3   12   11 1 
     4   18   17 1 
     5    6    5 1 
     6   30   28 1 
     7   44   42 1 
     8   17   14 1 
     9   17   19 2 
    10   14   11 1 
    11   14   15 1 
    12    8   11 1 
    13    8    5 1 
    14    8    9 1 
    15   11   13 1 
    16    3    4 2 
    17    4    5 1 
    18    4    2 1 
    19    1    2 1 
    20    5    7 1 
    21   20   19 1 
    22   19   21 1 
    23   28   29 1 
    24   28   26 1 
    25   28   31 1 
    26   27   26 1 
    27   26   24 2 
    28   42   43 1 
    29   42   40 1 
    30   42   45 1 
    31   41   40 1 
    32   37   35 1 
    33   24   25 1 
    34   24   21 1 
    35   40   38 2 
    36   23   21 1 
    37   46   45 1 
    38   48   45 1 
    39   21   22 1 
    40   31   32 1 
    41   31   33 2 
    42   45   47 1 
    43   38   39 1 
    44   38   35 1 
    45   35   33 1 
    46   35   36 1 
    47   33   34 1 
