@<TRIPOS>MOLECULE
C:\Users\Praveer\PycharmProjects\pdb_to_mol2_converter\data\pdb\sdpa.pdb
  124   123     0     0     0
SMALL
GASTEIGER

@<TRIPOS>ATOM
      1 P           1.5320   -0.0960   -0.1190 P.3       1 SDP1        0.0000
      2 O13         2.2270   -0.6130    1.0730 O.3       1 SDP1        0.0000
      3 O14         1.7560   -0.7330   -1.4240 O.2       1 SDP1        0.0000
      4 O12         2.1550    1.3300   -0.2600 O.3       1 SDP1        0.0000
      5 H12         3.0890    1.2250   -0.0620 H         1 SDP1        0.0000
      6 O11         0.0000    0.1560    0.1640 O.3       1 SDP1        0.0000
      7 C1         -0.8130    0.8620   -0.7760 C.3       1 SDP1        0.0000
      8 HA         -1.3620    0.1370   -1.4160 H         1 SDP1        0.0000
      9 HB         -0.2110    1.5230   -1.4480 H         1 SDP1        0.0000
     10 C2         -1.8190    1.7760   -0.0240 C.3       1 SDP1        0.0000
     11 HS         -2.6210    1.1320    0.4080 H         1 SDP1        0.0000
     12 O21        -2.3480    2.7700   -0.9250 O.3       1 SDP1        0.0000
     13 C21        -3.2010    2.3010   -1.8140 C.2       1 SDP1        0.0000
     14 O22        -3.6880    1.1870   -1.8250 O.2       1 SDP1        0.0000
     15 C22        -3.5320    3.3750   -2.8620 C.3       1 SDP1        0.0000
     16 H2R        -4.5560    3.7360   -2.6350 H         1 SDP1        0.0000
     17 H2S        -3.5550    2.8470   -3.8390 H         1 SDP1        0.0000
     18 C3         -1.1420    2.5140    1.1650 C.3       1 SDP1        0.0000
     19 HX         -0.4750    3.2840    0.7110 H         1 SDP1        0.0000
     20 HY         -0.5090    1.7950    1.7320 H         1 SDP1        0.0000
     21 O31        -2.1290    3.0880    2.0570 O.3       1 SDP1        0.0000
     22 C31        -1.6190    3.9980    2.8790 C.2       1 SDP1        0.0000
     23 O32        -0.4690    4.3890    2.8830 O.2       1 SDP1        0.0000
     24 C32        -2.6860    4.4800    3.8600 C.3       1 SDP1        0.0000
     25 H2X        -2.4660    4.0140    4.8420 H         1 SDP1        0.0000
     26 H2Y        -3.6880    4.1470    3.5240 H         1 SDP1        0.0000
     27 C23        -2.5440    4.5740   -2.9310 C.3       1 SDP1        0.0000
     28 H3R        -1.5110    4.1920   -3.0990 H         1 SDP1        0.0000
     29 H3S        -2.5430    5.1140   -1.9570 H         1 SDP1        0.0000
     30 C24        -2.9500    5.4980   -4.0510 C.2       1 SDP1        0.0000
     31 H4R        -3.8300    5.1710   -4.6270 H         1 SDP1        0.0000
     32 C25        -2.3460    6.6470   -4.3980 C.2       1 SDP1        0.0000
     33 H5R        -2.7670    7.2090   -5.2480 H         1 SDP1        0.0000
     34 C26        -1.1300    7.2570   -3.7350 C.3       1 SDP1        0.0000
     35 H6R        -0.2780    6.5420   -3.7880 H         1 SDP1        0.0000
     36 H6S        -1.3330    7.4150   -2.6520 H         1 SDP1        0.0000
     37 C27        -0.7310    8.5680   -4.3740 C.2       1 SDP1        0.0000
     38 H7R        -1.3620    8.9030   -5.2140 H         1 SDP1        0.0000
     39 C28         0.3010    9.3580   -4.0260 C.2       1 SDP1        0.0000
     40 H8R         0.4420   10.2830   -4.6080 H         1 SDP1        0.0000
     41 C29         1.3040    9.1200   -2.9170 C.3       1 SDP1        0.0000
     42 H9R         1.8250    8.1500   -3.0830 H         1 SDP1        0.0000
     43 H9S         0.7720    9.0230   -1.9440 H         1 SDP1        0.0000
     44 C210        2.3200   10.2390   -2.8360 C.2       1 SDP1        0.0000
     45 H10R        2.1960   11.0470   -3.5740 H         1 SDP1        0.0000
     46 C211        3.3460   10.3560   -1.9720 C.2       1 SDP1        0.0000
     47 H11R        3.9810   11.2510   -2.0720 H         1 SDP1        0.0000
     48 C212        3.7390    9.3990   -0.8690 C.3       1 SDP1        0.0000
     49 H12R        3.9410    8.3920   -1.3000 H         1 SDP1        0.0000
     50 H12S        2.8860    9.2680   -0.1640 H         1 SDP1        0.0000
     51 C213        4.9590    9.8850   -0.1110 C.2       1 SDP1        0.0000
     52 H13R        5.3860   10.8400   -0.4560 H         1 SDP1        0.0000
     53 C214        5.5630    9.2760    0.9240 C.2       1 SDP1        0.0000
     54 H14R        6.4460    9.7650    1.3650 H         1 SDP1        0.0000
     55 C215        5.1490    7.9690    1.5570 C.3       1 SDP1        0.0000
     56 H15R        5.1630    7.1680    0.7830 H         1 SDP1        0.0000
     57 H15S        4.0910    8.0430    1.8940 H         1 SDP1        0.0000
     58 C216        6.0230    7.5580    2.7240 C.2       1 SDP1        0.0000
     59 H16R        6.8420    8.2420    2.9970 H         1 SDP1        0.0000
     60 C217        5.8580    6.4270    3.4350 C.2       1 SDP1        0.0000
     61 H17R        6.5420    6.2030    4.2690 H         1 SDP1        0.0000
     62 C218        4.7750    5.4200    3.1460 C.3       1 SDP1        0.0000
     63 H18R        4.8770    5.0960    2.0870 H         1 SDP1        0.0000
     64 H18S        3.7880    5.9280    3.2220 H         1 SDP1        0.0000
     65 C219        4.7490    4.1920    4.0230 C.2       1 SDP1        0.0000
     66 H19R        5.5200    4.1640    4.8090 H         1 SDP1        0.0000
     67 C220        3.8910    3.1500    3.9520 C.2       1 SDP1        0.0000
     68 H20R        4.0270    2.3380    4.6830 H         1 SDP1        0.0000
     69 C221        2.7370    2.8800    3.0090 C.3       1 SDP1        0.0000
     70 H21R        1.7930    2.8530    3.6010 H         1 SDP1        0.0000
     71 H21S        2.8570    1.8510    2.5900 H         1 SDP1        0.0000
     72 C222        2.4850    3.8150    1.8130 C.3       1 SDP1        0.0000
     73 H22R        3.3700    3.8560    1.1460 H         1 SDP1        0.0000
     74 H22S        2.2270    4.8380    2.1550 H         1 SDP1        0.0000
     75 H22T        1.6310    3.4370    1.2130 H         1 SDP1        0.0000
     76 C33        -2.6350    6.0170    3.9840 C.3       1 SDP1        0.0000
     77 H3X        -2.9100    6.4730    3.0050 H         1 SDP1        0.0000
     78 H3Y        -1.5950    6.3400    4.2260 H         1 SDP1        0.0000
     79 C34        -3.5630    6.5730    5.0690 C.3       1 SDP1        0.0000
     80 H4X        -3.2450    6.1900    6.0650 H         1 SDP1        0.0000
     81 H4Y        -4.6030    6.2230    4.8840 H         1 SDP1        0.0000
     82 C35        -3.5330    8.1060    5.0760 C.3       1 SDP1        0.0000
     83 H5X        -3.8340    8.4710    4.0680 H         1 SDP1        0.0000
     84 H5Y        -2.4890    8.4490    5.2580 H         1 SDP1        0.0000
     85 C36        -4.4580    8.7350    6.1230 C.3       1 SDP1        0.0000
     86 H6X        -4.1370    8.4150    7.1390 H         1 SDP1        0.0000
     87 H6Y        -5.4970    8.3700    5.9620 H         1 SDP1        0.0000
     88 C37        -4.4470   10.2680    6.0440 C.3       1 SDP1        0.0000
     89 H7X        -4.7540   10.5800    5.0200 H         1 SDP1        0.0000
     90 H7Y        -3.4090   10.6350    6.2100 H         1 SDP1        0.0000
     91 C38        -5.3820   10.9230    7.0660 C.3       1 SDP1        0.0000
     92 H8X        -5.0720   10.6200    8.0910 H         1 SDP1        0.0000
     93 H8Y        -6.4190   10.5510    6.9020 H         1 SDP1        0.0000
     94 C39        -5.3770   12.4540    6.9680 C.3       1 SDP1        0.0000
     95 H9X        -5.6870   12.7550    5.9420 H         1 SDP1        0.0000
     96 H9Y        -4.3400   12.8260    7.1320 H         1 SDP1        0.0000
     97 C310       -6.3150   13.1060    7.9900 C.3       1 SDP1        0.0000
     98 H10X       -6.0040   12.8010    9.0150 H         1 SDP1        0.0000
     99 H10Y       -7.3500   12.7310    7.8250 H         1 SDP1        0.0000
    100 C311       -6.3170   14.6380    7.9040 C.3       1 SDP1        0.0000
    101 H11X       -6.6300   14.9460    6.8810 H         1 SDP1        0.0000
    102 H11Y       -5.2830   15.0150    8.0700 H         1 SDP1        0.0000
    103 C312       -7.2580   15.2760    8.9330 C.3       1 SDP1        0.0000
    104 H12X       -6.9440   14.9650    9.9550 H         1 SDP1        0.0000
    105 H12Y       -8.2910   14.8970    8.7660 H         1 SDP1        0.0000
    106 C313       -7.2670   16.8080    8.8560 C.3       1 SDP1        0.0000
    107 H13X       -7.5810   17.1190    7.8340 H         1 SDP1        0.0000
    108 H13Y       -6.2340   17.1870    9.0230 H         1 SDP1        0.0000
    109 C314       -8.2090   17.4440    9.8880 C.3       1 SDP1        0.0000
    110 H14X       -7.8940   17.1320   10.9090 H         1 SDP1        0.0000
    111 H14Y       -9.2420   17.0640    9.7210 H         1 SDP1        0.0000
    112 C315       -8.2190   18.9760    9.8110 C.3       1 SDP1        0.0000
    113 H15X       -8.5320   19.2870    8.7900 H         1 SDP1        0.0000
    114 H15Y       -7.1850   19.3550    9.9780 H         1 SDP1        0.0000
    115 C316       -9.1590   19.6170   10.8410 C.3       1 SDP1        0.0000
    116 H16X       -8.8460   19.3070   11.8640 H         1 SDP1        0.0000
    117 H16Y      -10.1930   19.2400   10.6760 H         1 SDP1        0.0000
    118 C317       -9.1620   21.1490   10.7570 C.3       1 SDP1        0.0000
    119 H17X       -9.4700   21.4490    9.7300 H         1 SDP1        0.0000
    120 H17Y       -8.1220   21.5160   10.9180 H         1 SDP1        0.0000
    121 C318      -10.0920   21.8130   11.7750 C.3       1 SDP1        0.0000
    122 H18X       -9.7910   21.5410   12.8090 H         1 SDP1        0.0000
    123 H18Y      -11.1390   21.4740   11.6210 H         1 SDP1        0.0000
    124 H18Z      -10.0570   22.9200   11.6730 H         1 SDP1        0.0000
@<TRIPOS>BOND
     1   33   32 1 
     2   38   37 1 
     3   31   30 1 
     4   40   39 1 
     5   32   30 2 
     6   32   34 1 
     7   37   39 2 
     8   37   34 1 
     9   30   27 1 
    10   39   41 1 
    11   17   15 1 
    12   35   34 1 
    13   34   36 1 
    14   45   44 1 
    15   28   27 1 
    16   42   41 1 
    17   27   15 1 
    18   27   29 1 
    19   41   44 1 
    20   41   43 1 
    21   15   16 1 
    22   15   13 1 
    23   44   46 2 
    24   47   46 1 
    25   46   48 1 
    26   14   13 2 
    27   13   12 1 
    28    9    7 1 
    29    3    1 2 
    30    8    7 1 
    31   49   48 1 
    32   12   10 1 
    33   48   50 1 
    34   48   51 1 
    35    7   10 1 
    36    7    6 1 
    37   52   51 1 
    38    4    1 1 
    39    4    5 1 
    40    1    6 1 
    41    1    2 1 
    42   51   53 2 
    43   10   11 1 
    44   10   18 1 
    45   19   18 1 
    46   56   55 1 
    47   53   54 1 
    48   53   55 1 
    49   73   72 1 
    50   18   20 1 
    51   18   21 1 
    52   75   72 1 
    53   55   57 1 
    54   55   58 1 
    55   72   74 1 
    56   72   69 1 
    57   21   22 1 
    58   63   62 1 
    59   71   69 1 
    60   58   59 1 
    61   58   60 2 
    62   22   23 2 
    63   22   24 1 
    64   77   76 1 
    65   69   70 1 
    66   69   67 1 
    67   62   64 1 
    68   62   60 1 
    69   62   65 1 
    70   60   61 1 
    71   26   24 1 
    72   24   76 1 
    73   24   25 1 
    74   67   65 2 
    75   67   68 1 
    76   76   78 1 
    77   76   79 1 
    78   65   66 1 
    79   83   82 1 
    80   81   79 1 
    81   89   88 1 
    82   79   82 1 
    83   79   80 1 
    84   82   84 1 
    85   82   85 1 
    86   95   94 1 
    87   87   85 1 
    88   88   85 1 
    89   88   90 1 
    90   88   91 1 
    91   85   86 1 
    92  101  100 1 
    93   93   91 1 
    94   94   91 1 
    95   94   96 1 
    96   94   97 1 
    97   91   92 1 
    98   99   97 1 
    99  107  106 1 
   100  100   97 1 
   101  100  102 1 
   102  100  103 1 
   103   97   98 1 
   104  105  103 1 
   105  113  112 1 
   106  106  103 1 
   107  106  108 1 
   108  106  109 1 
   109  103  104 1 
   110  111  109 1 
   111  119  118 1 
   112  112  109 1 
   113  112  114 1 
   114  112  115 1 
   115  109  110 1 
   116  117  115 1 
   117  118  115 1 
   118  118  120 1 
   119  118  121 1 
   120  115  116 1 
   121  123  121 1 
   122  124  121 1 
   123  121  122 1 
