@<TRIPOS>MOLECULE
C:\Users\Praveer\PycharmProjects\pdb_to_mol2_converter\data\pdb\sdpc.pdb
  142   141     0     0     0
SMALL
GASTEIGER

@<TRIPOS>ATOM
      1 N           1.6290   -0.0930   -0.0720 N.4       1 SDP1        0.0000
      2 C12         2.1970    1.3240   -0.1010 C.3       1 SDP1        0.0000
      3 H12A        3.2460    1.2840    0.1600 H         1 SDP1        0.0000
      4 H12B        1.6910    1.9030    0.6630 H         1 SDP1        0.0000
      5 C13         0.1310   -0.0400    0.0090 C.3       1 SDP1        0.0000
      6 H13A       -0.2700    0.5040   -0.8520 H         1 SDP1        0.0000
      7 H13B       -0.2160    0.5020    0.8790 H         1 SDP1        0.0000
      8 H13C       -0.3170   -1.0210   -0.0170 H         1 SDP1        0.0000
      9 C14         2.0080   -0.8150   -1.3310 C.3       1 SDP1        0.0000
     10 H14A        3.0770   -0.8950   -1.4470 H         1 SDP1        0.0000
     11 H14B        1.6410   -0.2540   -2.2010 H         1 SDP1        0.0000
     12 H14C        1.5580   -1.7940   -1.3860 H         1 SDP1        0.0000
     13 C15         2.1340   -0.8450    1.1210 C.3       1 SDP1        0.0000
     14 H15A        1.8340   -0.3530    2.0390 H         1 SDP1        0.0000
     15 H15B        3.2130   -0.9280    1.1030 H         1 SDP1        0.0000
     16 H15C        1.7210   -1.8470    1.1320 H         1 SDP1        0.0000
     17 C11         2.0880    2.1580   -1.4080 C.3       1 SDP1        0.0000
     18 H11A        2.6840    1.6840   -2.2230 H         1 SDP1        0.0000
     19 H11B        2.5690    3.1450   -1.2150 H         1 SDP1        0.0000
     20 P           0.0200    1.7390   -3.0100 P.3       1 SDP1        0.0000
     21 O13        -1.1950    1.0750   -2.4870 O.3       1 SDP1        0.0000
     22 O14         1.0020    0.8820   -3.7040 O.2       1 SDP1        0.0000
     23 O12         0.7340    2.4050   -1.7640 O.3       1 SDP1        0.0000
     24 O11        -0.3700    2.9860   -3.8980 O.3       1 SDP1        0.0000
     25 C1          0.5200    4.0820   -4.1160 C.3       1 SDP1        0.0000
     26 HA          0.8520    4.0700   -5.1770 H         1 SDP1        0.0000
     27 HB          1.4350    4.0350   -3.4780 H         1 SDP1        0.0000
     28 C2         -0.1850    5.4350   -3.8140 C.3       1 SDP1        0.0000
     29 HS         -0.9500    5.6220   -4.6040 H         1 SDP1        0.0000
     30 O21         0.8030    6.4840   -3.7520 O.3       1 SDP1        0.0000
     31 C21         1.2790    6.8460   -4.9300 C.2       1 SDP1        0.0000
     32 O22         0.8570    6.4880   -6.0130 O.2       1 SDP1        0.0000
     33 C22         2.4740    7.7940   -4.7620 C.3       1 SDP1        0.0000
     34 H2R         2.1040    8.8210   -4.9640 H         1 SDP1        0.0000
     35 H2S         3.1930    7.5130   -5.5620 H         1 SDP1        0.0000
     36 C3         -0.9370    5.3990   -2.4560 C.3       1 SDP1        0.0000
     37 HX         -0.1400    5.3210   -1.6790 H         1 SDP1        0.0000
     38 HY         -1.5670    4.4840   -2.4100 H         1 SDP1        0.0000
     39 O31        -1.7790    6.5670   -2.2870 O.3       1 SDP1        0.0000
     40 C31        -2.0470    6.8540   -1.0160 C.2       1 SDP1        0.0000
     41 O32        -1.6220    6.2550   -0.0490 O.2       1 SDP1        0.0000
     42 C32        -3.0050    8.0410   -0.9300 C.3       1 SDP1        0.0000
     43 H2X        -4.0300    7.6290   -0.8140 H         1 SDP1        0.0000
     44 H2Y        -2.9500    8.6280   -1.8680 H         1 SDP1        0.0000
     45 C23         3.1730    7.7380   -3.3750 C.3       1 SDP1        0.0000
     46 H3R         3.4470    6.6850   -3.1380 H         1 SDP1        0.0000
     47 H3S         2.4650    8.0820   -2.5870 H         1 SDP1        0.0000
     48 C24         4.4060    8.6030   -3.4010 C.2       1 SDP1        0.0000
     49 H4R         4.6250    9.0740   -4.3720 H         1 SDP1        0.0000
     50 C25         5.2390    8.8370   -2.3720 C.2       1 SDP1        0.0000
     51 H5R         6.1040    9.4940   -2.5550 H         1 SDP1        0.0000
     52 C26         5.1070    8.2820   -0.9700 C.3       1 SDP1        0.0000
     53 H6R         5.1240    7.1690   -1.0060 H         1 SDP1        0.0000
     54 H6S         4.1180    8.5650   -0.5460 H         1 SDP1        0.0000
     55 C27         6.2090    8.7760   -0.0600 C.2       1 SDP1        0.0000
     56 H7R         6.9400    9.4590   -0.5230 H         1 SDP1        0.0000
     57 C28         6.3870    8.4720    1.2370 C.2       1 SDP1        0.0000
     58 H8R         7.2530    8.9310    1.7430 H         1 SDP1        0.0000
     59 C29         5.5300    7.5660    2.0980 C.3       1 SDP1        0.0000
     60 H9R         5.4900    6.5490    1.6480 H         1 SDP1        0.0000
     61 H9S         4.4830    7.9440    2.1120 H         1 SDP1        0.0000
     62 C210        6.0650    7.4820    3.5110 C.2       1 SDP1        0.0000
     63 H10R        6.9730    8.0720    3.7110 H         1 SDP1        0.0000
     64 C211        5.5610    6.7780    4.5420 C.2       1 SDP1        0.0000
     65 H11R        6.0970    6.8500    5.5020 H         1 SDP1        0.0000
     66 C212        4.3340    5.8930    4.5450 C.3       1 SDP1        0.0000
     67 H12R        4.4430    5.1000    3.7720 H         1 SDP1        0.0000
     68 H12S        3.4420    6.4920    4.2540 H         1 SDP1        0.0000
     69 C213        4.1030    5.2580    5.9020 C.2       1 SDP1        0.0000
     70 H13R        4.8340    5.5170    6.6840 H         1 SDP1        0.0000
     71 C214        3.1020    4.4240    6.2410 C.2       1 SDP1        0.0000
     72 H14R        3.0710    4.0490    7.2770 H         1 SDP1        0.0000
     73 C215        1.9980    3.9500    5.3300 C.3       1 SDP1        0.0000
     74 H15R        2.4460    3.4260    4.4560 H         1 SDP1        0.0000
     75 H15S        1.4660    4.8350    4.9110 H         1 SDP1        0.0000
     76 C216        0.9930    3.0400    6.0100 C.2       1 SDP1        0.0000
     77 H16R        1.1240    2.8750    7.0920 H         1 SDP1        0.0000
     78 C217       -0.0310    2.4360    5.3860 C.2       1 SDP1        0.0000
     79 H17R       -0.7230    1.8020    5.9640 H         1 SDP1        0.0000
     80 C218       -0.3210    2.6020    3.9150 C.3       1 SDP1        0.0000
     81 H18R        0.5630    2.2440    3.3440 H         1 SDP1        0.0000
     82 H18S       -0.4120    3.6930    3.7120 H         1 SDP1        0.0000
     83 C219       -1.5540    1.9060    3.3950 C.2       1 SDP1        0.0000
     84 H19R       -2.0610    1.2500    4.1190 H         1 SDP1        0.0000
     85 C220       -2.1120    2.0240    2.1680 C.2       1 SDP1        0.0000
     86 H20R       -3.0320    1.4500    1.9800 H         1 SDP1        0.0000
     87 C221       -1.6870    2.8390    0.9660 C.3       1 SDP1        0.0000
     88 H21R       -2.4970    3.5680    0.7260 H         1 SDP1        0.0000
     89 H21S       -1.6340    2.1730    0.0740 H         1 SDP1        0.0000
     90 C222       -0.3700    3.6320    1.0140 C.3       1 SDP1        0.0000
     91 H22R        0.4820    3.0010    1.3220 H         1 SDP1        0.0000
     92 H22S       -0.4630    4.4960    1.7060 H         1 SDP1        0.0000
     93 H22T       -0.1410    4.0450    0.0110 H         1 SDP1        0.0000
     94 C33        -2.6570    8.9270    0.2870 C.3       1 SDP1        0.0000
     95 H3X        -1.6650    9.4060    0.1210 H         1 SDP1        0.0000
     96 H3Y        -2.5710    8.2970    1.2040 H         1 SDP1        0.0000
     97 C34        -3.6920   10.0210    0.5730 C.3       1 SDP1        0.0000
     98 H4X        -4.6640    9.5530    0.8440 H         1 SDP1        0.0000
     99 H4Y        -3.8520   10.6350   -0.3400 H         1 SDP1        0.0000
    100 C35        -3.2270   10.9290    1.7190 C.3       1 SDP1        0.0000
    101 H5X        -2.2510   11.3840    1.4350 H         1 SDP1        0.0000
    102 H5Y        -3.0570   10.3120    2.6310 H         1 SDP1        0.0000
    103 C36        -4.2170   12.0500    2.0490 C.3       1 SDP1        0.0000
    104 H6X        -5.1750   11.6080    2.4040 H         1 SDP1        0.0000
    105 H6Y        -4.4320   12.6330    1.1250 H         1 SDP1        0.0000
    106 C37        -3.6630   12.9960    3.1190 C.3       1 SDP1        0.0000
    107 H7X        -2.6940   13.4170    2.7650 H         1 SDP1        0.0000
    108 H7Y        -3.4580   12.4200    4.0490 H         1 SDP1        0.0000
    109 C38        -4.6170   14.1500    3.4380 C.3       1 SDP1        0.0000
    110 H8X        -5.5810   13.7370    3.8110 H         1 SDP1        0.0000
    111 H8Y        -4.8290   14.7190    2.5040 H         1 SDP1        0.0000
    112 C39        -4.0330   15.1020    4.4860 C.3       1 SDP1        0.0000
    113 H9X        -3.0670   15.5110    4.1110 H         1 SDP1        0.0000
    114 H9Y        -3.8200   14.5340    5.4190 H         1 SDP1        0.0000
    115 C310       -4.9770   16.2630    4.8080 C.3       1 SDP1        0.0000
    116 H10X       -5.9440   15.8570    5.1820 H         1 SDP1        0.0000
    117 H10Y       -5.1880   16.8350    3.8760 H         1 SDP1        0.0000
    118 C311       -4.3910   17.2120    5.8570 C.3       1 SDP1        0.0000
    119 H11X       -3.4260   17.6230    5.4830 H         1 SDP1        0.0000
    120 H11Y       -4.1790   16.6430    6.7900 H         1 SDP1        0.0000
    121 C312       -5.3400   18.3700    6.1780 C.3       1 SDP1        0.0000
    122 H12X       -6.3060   17.9590    6.5510 H         1 SDP1        0.0000
    123 H12Y       -5.5530   18.9400    5.2460 H         1 SDP1        0.0000
    124 C313       -4.7630   19.3230    7.2280 C.3       1 SDP1        0.0000
    125 H13X       -3.7980   19.7370    6.8580 H         1 SDP1        0.0000
    126 H13Y       -4.5510   18.7560    8.1620 H         1 SDP1        0.0000
    127 C314       -5.7190   20.4770    7.5450 C.3       1 SDP1        0.0000
    128 H14X       -6.6840   20.0600    7.9140 H         1 SDP1        0.0000
    129 H14Y       -5.9310   21.0420    6.6090 H         1 SDP1        0.0000
    130 C315       -5.1530   21.4390    8.5950 C.3       1 SDP1        0.0000
    131 H15X       -4.1900   21.8590    8.2270 H         1 SDP1        0.0000
    132 H15Y       -4.9440   20.8760    9.5330 H         1 SDP1        0.0000
    133 C316       -6.1190   22.5880    8.9030 C.3       1 SDP1        0.0000
    134 H16X       -7.0830   22.1660    9.2640 H         1 SDP1        0.0000
    135 H16Y       -6.3330   23.1440    7.9640 H         1 SDP1        0.0000
    136 C317       -5.5700   23.5610    9.9520 C.3       1 SDP1        0.0000
    137 H17X       -4.6010   23.9700    9.5860 H         1 SDP1        0.0000
    138 H17Y       -5.3510   22.9930   10.8840 H         1 SDP1        0.0000
    139 C318       -6.5240   24.7150   10.2710 C.3       1 SDP1        0.0000
    140 H18X       -7.4860   24.3250   10.6720 H         1 SDP1        0.0000
    141 H18Y       -6.7270   25.3160    9.3560 H         1 SDP1        0.0000
    142 H18Z       -6.0730   25.3840   11.0340 H         1 SDP1        0.0000
@<TRIPOS>BOND
     1   32   31 2 
     2   35   33 1 
     3   26   25 1 
     4   34   33 1 
     5   31   33 1 
     6   31   30 1 
     7   33   45 1 
     8   29   28 1 
     9   49   48 1 
    10   25   24 1 
    11   25   28 1 
    12   25   27 1 
    13   24   20 1 
    14   28   30 1 
    15   28   36 1 
    16   22   20 2 
    17   48   45 1 
    18   48   50 2 
    19   45   46 1 
    20   45   47 1 
    21   20   21 1 
    22   20   23 1 
    23   51   50 1 
    24   36   38 1 
    25   36   39 1 
    26   36   37 1 
    27   50   52 1 
    28   39   40 1 
    29   18   17 1 
    30   11    9 1 
    31   44   42 1 
    32   23   17 1 
    33   10    9 1 
    34   17   19 1 
    35   17    2 1 
    36   12    9 1 
    37    9    1 1 
    38   40   42 1 
    39   40   41 2 
    40   53   52 1 
    41   52   54 1 
    42   52   55 1 
    43   42   43 1 
    44   42   94 1 
    45    6    5 1 
    46   56   55 1 
    47   99   97 1 
    48    2    1 1 
    49    2    3 1 
    50    2    4 1 
    51    1    5 1 
    52    1   13 1 
    53   55   57 2 
    54    8    5 1 
    55    5    7 1 
    56   93   90 1 
    57   89   87 1 
    58   95   94 1 
    59   94   97 1 
    60   94   96 1 
    61   97   98 1 
    62   97  100 1 
    63   88   87 1 
    64   87   90 1 
    65   87   85 1 
    66   90   91 1 
    67   90   92 1 
    68   15   13 1 
    69   13   16 1 
    70   13   14 1 
    71  105  103 1 
    72   57   58 1 
    73   57   59 1 
    74  101  100 1 
    75   60   59 1 
    76  100  103 1 
    77  100  102 1 
    78   86   85 1 
    79  103  104 1 
    80  103  106 1 
    81   59   61 1 
    82   59   62 1 
    83   85   83 2 
    84  111  109 1 
    85  107  106 1 
    86  106  109 1 
    87  106  108 1 
    88   81   80 1 
    89   83   80 1 
    90   83   84 1 
    91  109  110 1 
    92  109  112 1 
    93   62   63 1 
    94   62   64 2 
    95   82   80 1 
    96   67   66 1 
    97  117  115 1 
    98   80   78 1 
    99  113  112 1 
   100   68   66 1 
   101   74   73 1 
   102  112  115 1 
   103  112  114 1 
   104   64   66 1 
   105   64   65 1 
   106   66   69 1 
   107  115  116 1 
   108  115  118 1 
   109   75   73 1 
   110  123  121 1 
   111   73   76 1 
   112   73   71 1 
   113   78   79 1 
   114   78   76 2 
   115  119  118 1 
   116  118  121 1 
   117  118  120 1 
   118   69   71 2 
   119   69   70 1 
   120   76   77 1 
   121  121  122 1 
   122  121  124 1 
   123   71   72 1 
   124  129  127 1 
   125  125  124 1 
   126  124  127 1 
   127  124  126 1 
   128  127  128 1 
   129  127  130 1 
   130  135  133 1 
   131  131  130 1 
   132  130  133 1 
   133  130  132 1 
   134  133  134 1 
   135  133  136 1 
   136  141  139 1 
   137  137  136 1 
   138  136  139 1 
   139  136  138 1 
   140  139  140 1 
   141  139  142 1 
