@<TRIPOS>MOLECULE
C:\Users\Praveer\PycharmProjects\pdb_to_mol2_converter\data\pdb\sdpe.pdb
  133   132     0     0     0
SMALL
GASTEIGER

@<TRIPOS>ATOM
      1 N           1.2910   -0.3310   -0.1070 N.4       1 SDP1        0.0000
      2 HN1         0.3000   -0.5630    0.0780 H         1 SDP1        0.0000
      3 HN2         1.9440   -0.9920    0.3670 H         1 SDP1        0.0000
      4 HN3         1.5070   -0.4640   -1.1370 H         1 SDP1        0.0000
      5 C12         1.6850    1.0850    0.2360 C.3       1 SDP1        0.0000
      6 H12A        1.4630    1.2520    1.3100 H         1 SDP1        0.0000
      7 H12B        1.0490    1.7560   -0.3750 H         1 SDP1        0.0000
      8 C11         3.1820    1.3680   -0.0440 C.3       1 SDP1        0.0000
      9 H11A        3.8310    0.8480    0.6990 H         1 SDP1        0.0000
     10 H11B        3.3520    2.4570    0.1170 H         1 SDP1        0.0000
     11 P           3.8940   -0.4260   -1.8280 P.3       1 SDP1        0.0000
     12 O13         2.6260   -0.9130   -2.4240 O.2       1 SDP1        0.0000
     13 O14         4.3190   -1.1450   -0.6140 O.3       1 SDP1        0.0000
     14 O12         3.5700    1.0580   -1.3850 O.3       1 SDP1        0.0000
     15 O11         5.0600   -0.2610   -2.8750 O.3       1 SDP1        0.0000
     16 C1          6.1790    0.5870   -2.5810 C.3       1 SDP1        0.0000
     17 HA          7.0910   -0.0400   -2.4670 H         1 SDP1        0.0000
     18 HB          6.0590    1.1590   -1.6280 H         1 SDP1        0.0000
     19 C2          6.4240    1.6300   -3.7120 C.3       1 SDP1        0.0000
     20 HS          6.9860    1.1300   -4.5360 H         1 SDP1        0.0000
     21 O21         7.1430    2.7630   -3.1810 O.3       1 SDP1        0.0000
     22 C21         8.3950    2.5020   -2.8510 C.2       1 SDP1        0.0000
     23 O22         9.0020    1.4800   -3.1060 O.2       1 SDP1        0.0000
     24 C22         9.0100    3.6790   -2.0800 C.3       1 SDP1        0.0000
     25 H2R         9.6520    4.2310   -2.7960 H         1 SDP1        0.0000
     26 H2S         9.6630    3.2210   -1.3060 H         1 SDP1        0.0000
     27 C3          5.1000    2.1560   -4.3300 C.3       1 SDP1        0.0000
     28 HX          4.6340    2.7990   -3.5450 H         1 SDP1        0.0000
     29 HY          4.4200    1.3000   -4.5350 H         1 SDP1        0.0000
     30 O31         5.3500    2.8720   -5.5640 O.3       1 SDP1        0.0000
     31 C31         4.3570    3.6850   -5.9120 C.2       1 SDP1        0.0000
     32 O32         3.3350    3.8650   -5.2780 O.2       1 SDP1        0.0000
     33 C32         4.6560    4.3510   -7.2520 C.3       1 SDP1        0.0000
     34 H2X         4.0750    3.8090   -8.0270 H         1 SDP1        0.0000
     35 H2Y         5.7370    4.2610   -7.4790 H         1 SDP1        0.0000
     36 C23         7.9980    4.6500   -1.4090 C.3       1 SDP1        0.0000
     37 H3R         7.3130    4.0760   -0.7450 H         1 SDP1        0.0000
     38 H3S         7.3740    5.1380   -2.1910 H         1 SDP1        0.0000
     39 C24         8.7600    5.6800   -0.6150 C.2       1 SDP1        0.0000
     40 H4R         9.8540    5.5550   -0.6230 H         1 SDP1        0.0000
     41 C25         8.2400    6.7040    0.0830 C.2       1 SDP1        0.0000
     42 H5R         8.9430    7.3690    0.6130 H         1 SDP1        0.0000
     43 C26         6.7730    7.0450    0.2210 C.3       1 SDP1        0.0000
     44 H6R         6.2290    6.1810    0.6650 H         1 SDP1        0.0000
     45 H6S         6.3300    7.2070   -0.7870 H         1 SDP1        0.0000
     46 C27         6.5510    8.2740    1.0740 C.2       1 SDP1        0.0000
     47 H7R         7.4600    8.7500    1.4770 H         1 SDP1        0.0000
     48 C28         5.3690    8.8350    1.3850 C.2       1 SDP1        0.0000
     49 H8R         5.3910    9.7340    2.0220 H         1 SDP1        0.0000
     50 C29         3.9950    8.3660    0.9540 C.3       1 SDP1        0.0000
     51 H9R         3.8320    7.3190    1.2950 H         1 SDP1        0.0000
     52 H9S         3.9390    8.3450   -0.1580 H         1 SDP1        0.0000
     53 C210        2.9040    9.2590    1.5040 C.2       1 SDP1        0.0000
     54 H10R        3.2490   10.1040    2.1220 H         1 SDP1        0.0000
     55 C211        1.5760    9.1410    1.3230 C.2       1 SDP1        0.0000
     56 H11R        0.9400    9.8990    1.8080 H         1 SDP1        0.0000
     57 C212        0.8400    8.0860    0.5260 C.3       1 SDP1        0.0000
     58 H12R        1.0960    7.0750    0.9160 H         1 SDP1        0.0000
     59 H12S        1.1850    8.1080   -0.5320 H         1 SDP1        0.0000
     60 C213       -0.6600    8.2930    0.5810 C.2       1 SDP1        0.0000
     61 H13R       -1.0030    9.1530    1.1780 H         1 SDP1        0.0000
     62 C214       -1.6050    7.5470   -0.0190 C.2       1 SDP1        0.0000
     63 H14R       -2.6580    7.8390    0.1230 H         1 SDP1        0.0000
     64 C215       -1.3700    6.3320   -0.8830 C.3       1 SDP1        0.0000
     65 H15R       -0.8200    5.5650   -0.2920 H         1 SDP1        0.0000
     66 H15S       -0.6950    6.6080   -1.7250 H         1 SDP1        0.0000
     67 C216       -2.6440    5.7310   -1.4390 C.2       1 SDP1        0.0000
     68 H16R       -3.5850    6.2590   -1.2160 H         1 SDP1        0.0000
     69 C217       -2.6910    4.6100   -2.1810 C.2       1 SDP1        0.0000
     70 H17R       -3.6590    4.2400   -2.5550 H         1 SDP1        0.0000
     71 C218       -1.4630    3.8220   -2.5520 C.3       1 SDP1        0.0000
     72 H18R       -0.9750    3.4840   -1.6130 H         1 SDP1        0.0000
     73 H18S       -0.7500    4.5150   -3.0500 H         1 SDP1        0.0000
     74 C219       -1.6680    2.6250   -3.4470 C.2       1 SDP1        0.0000
     75 H19R       -2.7130    2.4330   -3.7400 H         1 SDP1        0.0000
     76 C220       -0.7190    1.7900   -3.9200 C.2       1 SDP1        0.0000
     77 H20R       -1.0520    0.9700   -4.5760 H         1 SDP1        0.0000
     78 C221        0.7820    1.7950   -3.7220 C.3       1 SDP1        0.0000
     79 H21R        1.2640    1.7150   -4.7250 H         1 SDP1        0.0000
     80 H21S        1.0740    0.8660   -3.1850 H         1 SDP1        0.0000
     81 C222        1.4670    2.9770   -3.0140 C.3       1 SDP1        0.0000
     82 H22R        1.0900    3.1290   -1.9880 H         1 SDP1        0.0000
     83 H22S        1.3190    3.9150   -3.5930 H         1 SDP1        0.0000
     84 H22T        2.5600    2.7980   -2.9470 H         1 SDP1        0.0000
     85 C33         4.2280    5.8330   -7.2170 C.3       1 SDP1        0.0000
     86 H3X         4.8740    6.3830   -6.4960 H         1 SDP1        0.0000
     87 H3Y         3.1750    5.9160   -6.8550 H         1 SDP1        0.0000
     88 C34         4.3030    6.5290   -8.5810 C.3       1 SDP1        0.0000
     89 H4X         3.5900    6.0470   -9.2860 H         1 SDP1        0.0000
     90 H4Y         5.3270    6.4200   -9.0010 H         1 SDP1        0.0000
     91 C35         3.9640    8.0190   -8.4490 C.3       1 SDP1        0.0000
     92 H5X         4.6730    8.4810   -7.7250 H         1 SDP1        0.0000
     93 H5Y         2.9390    8.1240   -8.0270 H         1 SDP1        0.0000
     94 C36         4.0420    8.7870   -9.7720 C.3       1 SDP1        0.0000
     95 H6X         3.2950    8.3720  -10.4860 H         1 SDP1        0.0000
     96 H6Y         5.0530    8.6490  -10.2170 H         1 SDP1        0.0000
     97 C37         3.7830   10.2870   -9.5750 C.3       1 SDP1        0.0000
     98 H7X         4.5210   10.6900   -8.8460 H         1 SDP1        0.0000
     99 H7Y         2.7680   10.4290   -9.1410 H         1 SDP1        0.0000
    100 C38         3.8890   11.0800  -10.8820 C.3       1 SDP1        0.0000
    101 H8X         3.1440   10.6850  -11.6100 H         1 SDP1        0.0000
    102 H8Y         4.9020   10.9280  -11.3180 H         1 SDP1        0.0000
    103 C39         3.6500   12.5820  -10.6820 C.3       1 SDP1        0.0000
    104 H9X         4.3950   12.9770   -9.9550 H         1 SDP1        0.0000
    105 H9Y         2.6370   12.7370  -10.2480 H         1 SDP1        0.0000
    106 C310        3.7620   13.3660  -11.9950 C.3       1 SDP1        0.0000
    107 H10X        3.0190   12.9660  -12.7210 H         1 SDP1        0.0000
    108 H10Y        4.7760   13.2080  -12.4270 H         1 SDP1        0.0000
    109 C311        3.5250   14.8700  -11.8130 C.3       1 SDP1        0.0000
    110 H11X        4.2690   15.2730  -11.0900 H         1 SDP1        0.0000
    111 H11Y        2.5110   15.0310  -11.3820 H         1 SDP1        0.0000
    112 C312        3.6370   15.6410  -13.1350 C.3       1 SDP1        0.0000
    113 H12X        2.8940   15.2350  -13.8580 H         1 SDP1        0.0000
    114 H12Y        4.6510   15.4790  -13.5660 H         1 SDP1        0.0000
    115 C313        3.4000   17.1470  -12.9630 C.3       1 SDP1        0.0000
    116 H13X        4.1430   17.5530  -12.2410 H         1 SDP1        0.0000
    117 H13Y        2.3860   17.3080  -12.5320 H         1 SDP1        0.0000
    118 C314        3.5120   17.9150  -14.2860 C.3       1 SDP1        0.0000
    119 H14X        2.7690   17.5090  -15.0080 H         1 SDP1        0.0000
    120 H14Y        4.5260   17.7530  -14.7170 H         1 SDP1        0.0000
    121 C315        3.2740   19.4210  -14.1130 C.3       1 SDP1        0.0000
    122 H15X        4.0180   19.8270  -13.3910 H         1 SDP1        0.0000
    123 H15Y        2.2610   19.5820  -13.6820 H         1 SDP1        0.0000
    124 C316        3.3860   20.1940  -15.4350 C.3       1 SDP1        0.0000
    125 H16X        2.6430   19.7890  -16.1570 H         1 SDP1        0.0000
    126 H16Y        4.3990   20.0330  -15.8660 H         1 SDP1        0.0000
    127 C317        3.1470   21.6990  -15.2580 C.3       1 SDP1        0.0000
    128 H17X        3.8910   22.0950  -14.5290 H         1 SDP1        0.0000
    129 H17Y        2.1340   21.8510  -14.8200 H         1 SDP1        0.0000
    130 C318        3.2530   22.4930  -16.5620 C.3       1 SDP1        0.0000
    131 H18X        2.5020   22.1310  -17.2970 H         1 SDP1        0.0000
    132 H18Y        4.2650   22.3770  -17.0050 H         1 SDP1        0.0000
    133 H18Z        3.0720   23.5730  -16.3770 H         1 SDP1        0.0000
@<TRIPOS>BOND
     1  131  130 1 
     2  132  130 1 
     3  130  133 1 
     4  130  127 1 
     5  125  124 1 
     6  126  124 1 
     7  124  127 1 
     8  124  121 1 
     9  127  129 1 
    10  127  128 1 
    11  119  118 1 
    12  120  118 1 
    13  118  121 1 
    14  118  115 1 
    15  121  123 1 
    16  121  122 1 
    17  113  112 1 
    18  114  112 1 
    19  112  115 1 
    20  112  109 1 
    21  115  117 1 
    22  115  116 1 
    23  107  106 1 
    24  108  106 1 
    25  106  109 1 
    26  106  103 1 
    27  109  111 1 
    28  109  110 1 
    29  101  100 1 
    30  102  100 1 
    31  100  103 1 
    32  100   97 1 
    33  103  105 1 
    34  103  104 1 
    35   95   94 1 
    36   96   94 1 
    37   94   97 1 
    38   94   91 1 
    39   97   99 1 
    40   97   98 1 
    41   89   88 1 
    42   90   88 1 
    43   88   91 1 
    44   88   85 1 
    45   91   93 1 
    46   91   92 1 
    47   34   33 1 
    48   35   33 1 
    49   33   85 1 
    50   33   31 1 
    51   85   87 1 
    52   85   86 1 
    53   31   30 1 
    54   31   32 2 
    55   30   27 1 
    56   79   78 1 
    57   77   76 1 
    58   20   19 1 
    59   29   27 1 
    60   27   19 1 
    61   27   28 1 
    62   76   78 1 
    63   76   74 2 
    64   75   74 1 
    65   78   80 1 
    66   78   81 1 
    67   19   21 1 
    68   19   16 1 
    69   83   81 1 
    70   74   71 1 
    71   21   22 1 
    72   23   22 2 
    73   73   71 1 
    74   81   84 1 
    75   81   82 1 
    76   15   16 1 
    77   15   11 1 
    78   22   24 1 
    79   25   24 1 
    80   16   17 1 
    81   16   18 1 
    82   70   69 1 
    83   71   69 1 
    84   71   72 1 
    85   12   11 2 
    86   38   36 1 
    87   69   67 2 
    88   24   36 1 
    89   24   26 1 
    90   11   14 1 
    91   11   13 1 
    92   66   64 1 
    93   67   68 1 
    94   67   64 1 
    95   36   37 1 
    96   36   39 1 
    97   14    8 1 
    98    4    1 1 
    99   64   65 1 
   100   64   62 1 
   101   45   43 1 
   102   40   39 1 
   103   39   41 2 
   104   59   57 1 
   105    7    5 1 
   106   52   50 1 
   107    1    2 1 
   108    1    5 1 
   109    1    3 1 
   110    8   10 1 
   111    8    5 1 
   112    8    9 1 
   113   62   63 1 
   114   62   60 2 
   115   41   43 1 
   116   41   42 1 
   117   43   44 1 
   118   43   46 1 
   119    5    6 1 
   120   57   60 1 
   121   57   58 1 
   122   57   55 1 
   123   60   61 1 
   124   50   51 1 
   125   50   48 1 
   126   50   53 1 
   127   46   48 2 
   128   46   47 1 
   129   55   53 2 
   130   55   56 1 
   131   48   49 1 
   132   53   54 1 
