@<TRIPOS>MOLECULE
C:\Users\Praveer\PycharmProjects\pdb_to_mol2_converter\data\pdb\sdpg.pdb
  135   134     0     0     0
SMALL
GASTEIGER

@<TRIPOS>ATOM
      1 C13         0.0640   -0.0290   -0.1790 C.3       1 SDP1        0.0000
      2 H13A       -0.3230    0.4750   -1.0930 H         1 SDP1        0.0000
      3 H13B       -0.1890   -1.1090   -0.2410 H         1 SDP1        0.0000
      4 OC3        -0.5680    0.5460    0.9670 O.3       1 SDP1        0.0000
      5 HO3        -0.4510    1.5010    0.8500 H         1 SDP1        0.0000
      6 C12         1.6040    0.1390   -0.1030 C.3       1 SDP1        0.0000
      7 H12A        1.9790   -0.5280    0.7040 H         1 SDP1        0.0000
      8 OC2         2.2280   -0.2790   -1.3140 O.3       1 SDP1        0.0000
      9 HO2         2.4670    0.5540   -1.7770 H         1 SDP1        0.0000
     10 C11         2.0300    1.5940    0.2360 C.3       1 SDP1        0.0000
     11 H11A        3.1210    1.7320    0.0500 H         1 SDP1        0.0000
     12 H11B        1.8740    1.7320    1.3300 H         1 SDP1        0.0000
     13 P           1.5100    2.9370   -1.9630 P.3       1 SDP1        0.0000
     14 O13         0.2570    2.7630   -2.7200 O.2       1 SDP1        0.0000
     15 O14         2.7010    2.1740   -2.4010 O.3       1 SDP1        0.0000
     16 O12         1.2320    2.5650   -0.4460 O.3       1 SDP1        0.0000
     17 O11         1.8480    4.4840   -1.8640 O.3       1 SDP1        0.0000
     18 C1          2.4910    5.0790   -0.7370 C.3       1 SDP1        0.0000
     19 HA          3.2750    5.7760   -1.1080 H         1 SDP1        0.0000
     20 HB          3.0130    4.3200   -0.1080 H         1 SDP1        0.0000
     21 C2          1.5140    5.8910    0.1740 C.3       1 SDP1        0.0000
     22 HS          1.3210    6.8790   -0.3070 H         1 SDP1        0.0000
     23 O21         2.1310    6.0250    1.4700 O.3       1 SDP1        0.0000
     24 C21         3.1350    6.8870    1.4970 C.2       1 SDP1        0.0000
     25 O22         3.3160    7.7990    0.7190 O.2       1 SDP1        0.0000
     26 C22         4.1380    6.4410    2.5690 C.3       1 SDP1        0.0000
     27 H2R         5.0280    6.0950    1.9970 H         1 SDP1        0.0000
     28 H2S         3.7230    5.5740    3.1220 H         1 SDP1        0.0000
     29 C3          0.1250    5.2160    0.3610 C.3       1 SDP1        0.0000
     30 HX          0.2870    4.3130    0.9960 H         1 SDP1        0.0000
     31 HY         -0.2470    4.8880   -0.6350 H         1 SDP1        0.0000
     32 O31        -0.8330    6.1290    0.9460 O.3       1 SDP1        0.0000
     33 C31        -1.9520    5.5270    1.3400 C.2       1 SDP1        0.0000
     34 O32        -2.1630    4.3300    1.3100 O.2       1 SDP1        0.0000
     35 C32        -2.9670    6.5710    1.8050 C.3       1 SDP1        0.0000
     36 H2X        -3.8040    6.5630    1.0750 H         1 SDP1        0.0000
     37 H2Y        -2.5000    7.5760    1.8040 H         1 SDP1        0.0000
     38 C23         4.5590    7.5620    3.5530 C.3       1 SDP1        0.0000
     39 H3R         3.6910    7.8560    4.1850 H         1 SDP1        0.0000
     40 H3S         4.8810    8.4620    2.9810 H         1 SDP1        0.0000
     41 C24         5.6980    7.0480    4.3950 C.2       1 SDP1        0.0000
     42 H4R         6.1360    6.0990    4.0490 H         1 SDP1        0.0000
     43 C25         6.2010    7.6150    5.5030 C.2       1 SDP1        0.0000
     44 H5R         7.0390    7.0970    5.9980 H         1 SDP1        0.0000
     45 C26         5.7520    8.9120    6.1400 C.3       1 SDP1        0.0000
     46 H6R         4.6800    8.8370    6.4320 H         1 SDP1        0.0000
     47 H6S         5.8150    9.7380    5.3950 H         1 SDP1        0.0000
     48 C27         6.5920    9.2480    7.3520 C.2       1 SDP1        0.0000
     49 H7R         7.3810    8.5200    7.5980 H         1 SDP1        0.0000
     50 C28         6.4890   10.3230    8.1530 C.2       1 SDP1        0.0000
     51 H8R         7.2010   10.3860    8.9910 H         1 SDP1        0.0000
     52 C29         5.5070   11.4680    8.0480 C.3       1 SDP1        0.0000
     53 H9R         4.4650   11.0770    8.0870 H         1 SDP1        0.0000
     54 H9S         5.6150   11.9680    7.0590 H         1 SDP1        0.0000
     55 C210        5.7150   12.4790    9.1560 C.2       1 SDP1        0.0000
     56 H10R        6.5290   12.2560    9.8650 H         1 SDP1        0.0000
     57 C211        5.0140   13.6080    9.3570 C.2       1 SDP1        0.0000
     58 H11R        5.2940   14.2400   10.2150 H         1 SDP1        0.0000
     59 C212        3.8640   14.1050    8.5120 C.3       1 SDP1        0.0000
     60 H12R        3.0630   13.3320    8.4890 H         1 SDP1        0.0000
     61 H12S        4.2060   14.2280    7.4600 H         1 SDP1        0.0000
     62 C213        3.2900   15.4110    9.0130 C.2       1 SDP1        0.0000
     63 H13R        3.7660   15.8370    9.9110 H         1 SDP1        0.0000
     64 C214        2.2660   16.0890    8.4650 C.2       1 SDP1        0.0000
     65 H14R        1.9560   17.0320    8.9430 H         1 SDP1        0.0000
     66 C215        1.4840   15.6780    7.2390 C.3       1 SDP1        0.0000
     67 H15R        1.0350   14.6740    7.4060 H         1 SDP1        0.0000
     68 H15S        2.1800   15.5650    6.3770 H         1 SDP1        0.0000
     69 C216        0.3900   16.6540    6.8660 C.2       1 SDP1        0.0000
     70 H16R        0.2830   17.5400    7.5110 H         1 SDP1        0.0000
     71 C217       -0.4430   16.5110    5.8190 C.2       1 SDP1        0.0000
     72 H17R       -1.2060   17.2850    5.6400 H         1 SDP1        0.0000
     73 C218       -0.4130   15.3510    4.8530 C.3       1 SDP1        0.0000
     74 H18R       -0.5500   14.4070    5.4250 H         1 SDP1        0.0000
     75 H18S        0.5970   15.3020    4.3870 H         1 SDP1        0.0000
     76 C219       -1.4500   15.4080    3.7550 C.2       1 SDP1        0.0000
     77 H19R       -2.1090   16.2900    3.7890 H         1 SDP1        0.0000
     78 C220       -1.6570   14.5240    2.7570 C.2       1 SDP1        0.0000
     79 H20R       -2.4720   14.7530    2.0510 H         1 SDP1        0.0000
     80 C221       -0.9540   13.2270    2.4110 C.3       1 SDP1        0.0000
     81 H21R       -0.5650   13.3130    1.3730 H         1 SDP1        0.0000
     82 H21S       -1.7190   12.4210    2.3760 H         1 SDP1        0.0000
     83 C222        0.2060   12.6920    3.2700 C.3       1 SDP1        0.0000
     84 H22R       -0.1300   12.5030    4.3100 H         1 SDP1        0.0000
     85 H22S        1.0520   13.4090    3.2790 H         1 SDP1        0.0000
     86 H22T        0.5820   11.7310    2.8560 H         1 SDP1        0.0000
     87 C33        -3.5150    6.2400    3.2080 C.3       1 SDP1        0.0000
     88 H3X        -2.6900    6.3050    3.9520 H         1 SDP1        0.0000
     89 H3Y        -3.9090    5.1970    3.2290 H         1 SDP1        0.0000
     90 C34        -4.6420    7.1890    3.6290 C.3       1 SDP1        0.0000
     91 H4X        -5.4960    7.0770    2.9250 H         1 SDP1        0.0000
     92 H4Y        -4.2800    8.2390    3.5600 H         1 SDP1        0.0000
     93 C35        -5.1220    6.9160    5.0590 C.3       1 SDP1        0.0000
     94 H5X        -4.2640    7.0450    5.7570 H         1 SDP1        0.0000
     95 H5Y        -5.4640    5.8590    5.1340 H         1 SDP1        0.0000
     96 C36        -6.2630    7.8450    5.4900 C.3       1 SDP1        0.0000
     97 H6X        -7.1330    7.6950    4.8130 H         1 SDP1        0.0000
     98 H6Y        -5.9300    8.9030    5.3870 H         1 SDP1        0.0000
     99 C37        -6.6980    7.5950    6.9390 C.3       1 SDP1        0.0000
    100 H7X        -5.8210    7.7370    7.6100 H         1 SDP1        0.0000
    101 H7Y        -7.0310    6.5370    7.0400 H         1 SDP1        0.0000
    102 C38        -7.8310    8.5250    7.3930 C.3       1 SDP1        0.0000
    103 H8X        -8.7130    8.3760    6.7300 H         1 SDP1        0.0000
    104 H8Y        -7.4990    9.5820    7.2860 H         1 SDP1        0.0000
    105 C39        -8.2370    8.2630    8.8500 C.3       1 SDP1        0.0000
    106 H9X        -7.3450    8.4070    9.5020 H         1 SDP1        0.0000
    107 H9Y        -8.5610    7.2030    8.9470 H         1 SDP1        0.0000
    108 C310       -9.3670    9.1730    9.3540 C.3       1 SDP1        0.0000
    109 H10X      -10.2670    9.0330    8.7130 H         1 SDP1        0.0000
    110 H10Y       -9.0510   10.2370    9.2680 H         1 SDP1        0.0000
    111 C311       -9.7370    8.8740   10.8150 C.3       1 SDP1        0.0000
    112 H11X       -8.8370    9.0140   11.4540 H         1 SDP1        0.0000
    113 H11Y      -10.0510    7.8090   10.9000 H         1 SDP1        0.0000
    114 C312      -10.8670    9.7700   11.3400 C.3       1 SDP1        0.0000
    115 H12X      -11.7690    9.6310   10.7030 H         1 SDP1        0.0000
    116 H12Y      -10.5540   10.8350   11.2580 H         1 SDP1        0.0000
    117 C313      -11.2430    9.4770   12.7980 C.3       1 SDP1        0.0000
    118 H13X      -10.3500    9.6180   13.4470 H         1 SDP1        0.0000
    119 H13Y      -11.5620    8.4150   12.8930 H         1 SDP1        0.0000
    120 C314      -12.3740   10.3870   13.2940 C.3       1 SDP1        0.0000
    121 H14X      -13.2660   10.2450   12.6440 H         1 SDP1        0.0000
    122 H14Y      -12.0530   11.4490   13.2000 H         1 SDP1        0.0000
    123 C315      -12.7640   10.1090   14.7500 C.3       1 SDP1        0.0000
    124 H15X      -11.8720   10.2550   15.4010 H         1 SDP1        0.0000
    125 H15Y      -13.0880    9.0480   14.8440 H         1 SDP1        0.0000
    126 C316      -13.8950   11.0250   15.2350 C.3       1 SDP1        0.0000
    127 H16X      -14.7880   10.8820   14.5870 H         1 SDP1        0.0000
    128 H16Y      -13.5750   12.0860   15.1420 H         1 SDP1        0.0000
    129 C317      -14.2880   10.7500   16.6890 C.3       1 SDP1        0.0000
    130 H17X      -13.3880   10.8850   17.3280 H         1 SDP1        0.0000
    131 H17Y      -14.5960    9.6850   16.7740 H         1 SDP1        0.0000
    132 C318      -15.4150   11.6510   17.1960 C.3       1 SDP1        0.0000
    133 H18X      -16.3270   11.5030   16.5770 H         1 SDP1        0.0000
    134 H18Y      -15.1040   12.7170   17.1370 H         1 SDP1        0.0000
    135 H18Z      -15.6610   11.4110   18.2540 H         1 SDP1        0.0000
@<TRIPOS>BOND
     1   14   13 2 
     2   15   13 1 
     3   13   17 1 
     4   13   16 1 
     5   17   18 1 
     6    9    8 1 
     7    8    6 1 
     8   19   18 1 
     9    2    1 1 
    10   18   20 1 
    11   18   21 1 
    12   31   29 1 
    13   16   10 1 
    14   22   21 1 
    15    3    1 1 
    16    1    6 1 
    17    1    4 1 
    18    6   10 1 
    19    6    7 1 
    20   11   10 1 
    21   21   29 1 
    22   21   23 1 
    23   10   12 1 
    24   29   32 1 
    25   29   30 1 
    26   25   24 2 
    27    5    4 1 
    28   32   33 1 
    29   36   35 1 
    30   34   33 2 
    31   33   35 1 
    32   81   80 1 
    33   23   24 1 
    34   24   26 1 
    35   37   35 1 
    36   35   87 1 
    37   27   26 1 
    38   79   78 1 
    39   82   80 1 
    40   80   78 1 
    41   80   83 1 
    42   26   28 1 
    43   26   38 1 
    44   78   76 2 
    45   86   83 1 
    46   91   90 1 
    47   40   38 1 
    48   87   89 1 
    49   87   90 1 
    50   87   88 1 
    51   83   85 1 
    52   83   84 1 
    53   38   39 1 
    54   38   41 1 
    55   92   90 1 
    56   90   93 1 
    57   76   77 1 
    58   76   73 1 
    59   42   41 1 
    60   75   73 1 
    61   41   43 2 
    62   97   96 1 
    63   73   74 1 
    64   73   71 1 
    65   93   95 1 
    66   93   96 1 
    67   93   94 1 
    68   98   96 1 
    69   47   45 1 
    70   96   99 1 
    71   43   44 1 
    72   43   45 1 
    73   72   71 1 
    74   71   69 2 
    75   45   46 1 
    76   45   48 1 
    77   68   66 1 
    78  103  102 1 
    79   69   66 1 
    80   69   70 1 
    81   99  101 1 
    82   99  102 1 
    83   99  100 1 
    84   54   52 1 
    85   66   67 1 
    86   66   64 1 
    87  104  102 1 
    88   48   49 1 
    89   48   50 2 
    90  102  105 1 
    91   61   59 1 
    92   52   53 1 
    93   52   50 1 
    94   52   55 1 
    95   50   51 1 
    96   64   65 1 
    97   64   62 2 
    98   60   59 1 
    99   59   62 1 
   100   59   57 1 
   101  109  108 1 
   102  105  107 1 
   103  105  108 1 
   104  105  106 1 
   105   62   63 1 
   106   55   57 2 
   107   55   56 1 
   108  110  108 1 
   109  108  111 1 
   110   57   58 1 
   111  115  114 1 
   112  111  113 1 
   113  111  114 1 
   114  111  112 1 
   115  116  114 1 
   116  114  117 1 
   117  121  120 1 
   118  117  119 1 
   119  117  120 1 
   120  117  118 1 
   121  122  120 1 
   122  120  123 1 
   123  127  126 1 
   124  123  125 1 
   125  123  126 1 
   126  123  124 1 
   127  128  126 1 
   128  126  129 1 
   129  133  132 1 
   130  129  131 1 
   131  129  132 1 
   132  129  130 1 
   133  134  132 1 
   134  132  135 1 
