@<TRIPOS>MOLECULE
C:\Users\Praveer\PycharmProjects\pdb_to_mol2_converter\data\pdb\sdps.pdb
  135   134     0     0     0
SMALL
GASTEIGER

@<TRIPOS>ATOM
      1 N          -0.1210    0.4540   -0.2220 N.4       1 SDP1        0.0000
      2 HN1        -0.5910    0.1110    0.6300 H         1 SDP1        0.0000
      3 HN2        -0.4520   -0.0270   -1.0940 H         1 SDP1        0.0000
      4 HN3        -0.2090    1.5060   -0.2970 H         1 SDP1        0.0000
      5 C12         1.3310    0.1250   -0.2110 C.3       1 SDP1        0.0000
      6 H12A        1.5300   -0.5440    0.6130 H         1 SDP1        0.0000
      7 C13         1.6800   -0.6400   -1.5040 C.2       1 SDP1        0.0000
      8 O13A        0.7230   -0.9560   -2.2770 O.co2     1 SDP1        0.0000
      9 O13B        2.8370   -1.0990   -1.6070 O.co2     1 SDP1        0.0000
     10 C11         2.1780    1.4310   -0.0800 C.3       1 SDP1        0.0000
     11 H11A        2.0120    2.0890   -0.9660 H         1 SDP1        0.0000
     12 H11B        3.2490    1.1200   -0.1040 H         1 SDP1        0.0000
     13 P           0.7510    3.1270    1.3950 P.3       1 SDP1        0.0000
     14 O13         0.0380    2.6970    2.6110 O.3       1 SDP1        0.0000
     15 O14        -0.0420    3.1280    0.1450 O.2       1 SDP1        0.0000
     16 O12         1.9450    2.1170    1.1560 O.3       1 SDP1        0.0000
     17 O11         1.4750    4.5070    1.6360 O.3       1 SDP1        0.0000
     18 C1          2.7750    4.8140    1.1360 C.3       1 SDP1        0.0000
     19 HA          2.7180    5.7880    0.6010 H         1 SDP1        0.0000
     20 HB          3.1460    4.0660    0.3960 H         1 SDP1        0.0000
     21 C2          3.8280    4.9340    2.2800 C.3       1 SDP1        0.0000
     22 HS          3.6020    5.8580    2.8630 H         1 SDP1        0.0000
     23 O21         5.1470    4.9690    1.7020 O.3       1 SDP1        0.0000
     24 C21         5.4380    6.0970    1.0840 C.2       1 SDP1        0.0000
     25 O22         4.7910    7.1270    1.1300 O.2       1 SDP1        0.0000
     26 C22         6.7260    5.9490    0.2640 C.3       1 SDP1        0.0000
     27 H2R         7.5290    6.4580    0.8350 H         1 SDP1        0.0000
     28 H2S         6.5480    6.5140   -0.6770 H         1 SDP1        0.0000
     29 C3          3.7790    3.7510    3.2910 C.3       1 SDP1        0.0000
     30 HX          4.1070    2.8490    2.7200 H         1 SDP1        0.0000
     31 HY          2.7270    3.5980    3.6180 H         1 SDP1        0.0000
     32 O31         4.6120    4.0120    4.4520 O.3       1 SDP1        0.0000
     33 C31         4.9460    2.9120    5.1290 C.2       1 SDP1        0.0000
     34 O32         4.6390    1.7800    4.8310 O.2       1 SDP1        0.0000
     35 C32         5.7610    3.2580    6.3760 C.3       1 SDP1        0.0000
     36 H2X         5.0720    3.1860    7.2440 H         1 SDP1        0.0000
     37 H2Y         6.1410    4.2960    6.3000 H         1 SDP1        0.0000
     38 C23         7.1460    4.4890   -0.0690 C.3       1 SDP1        0.0000
     39 H3R         6.3050    3.9610   -0.5710 H         1 SDP1        0.0000
     40 H3S         7.3650    3.9370    0.8730 H         1 SDP1        0.0000
     41 C24         8.3570    4.5130   -0.9650 C.2       1 SDP1        0.0000
     42 H4R         8.7040    5.5180   -1.2500 H         1 SDP1        0.0000
     43 C25         9.0250    3.4470   -1.4380 C.2       1 SDP1        0.0000
     44 H5R         9.8920    3.6380   -2.0910 H         1 SDP1        0.0000
     45 C26         8.7040    1.9930   -1.1670 C.3       1 SDP1        0.0000
     46 H6R         7.6710    1.7660   -1.5170 H         1 SDP1        0.0000
     47 H6S         8.7060    1.8050   -0.0700 H         1 SDP1        0.0000
     48 C27         9.6840    1.0620   -1.8450 C.2       1 SDP1        0.0000
     49 H7R        10.4760    1.5490   -2.4360 H         1 SDP1        0.0000
     50 C28         9.6830   -0.2820   -1.8050 C.2       1 SDP1        0.0000
     51 H8R        10.4760   -0.8000   -2.3680 H         1 SDP1        0.0000
     52 C29         8.7060   -1.1770   -1.0730 C.3       1 SDP1        0.0000
     53 H9R         7.6720   -0.9840   -1.4410 H         1 SDP1        0.0000
     54 H9S         8.7000   -0.9240    0.0110 H         1 SDP1        0.0000
     55 C210        9.0470   -2.6400   -1.2570 C.2       1 SDP1        0.0000
     56 H10R        9.9280   -2.8480   -1.8840 H         1 SDP1        0.0000
     57 C211        8.3960   -3.7020   -0.7500 C.2       1 SDP1        0.0000
     58 H11R        8.7930   -4.6980   -1.0030 H         1 SDP1        0.0000
     59 C212        7.1620   -3.6960    0.1280 C.3       1 SDP1        0.0000
     60 H12R        6.3300   -3.1770   -0.4000 H         1 SDP1        0.0000
     61 H12S        7.3590   -3.1030    1.0500 H         1 SDP1        0.0000
     62 C213        6.7330   -5.1010    0.4990 C.2       1 SDP1        0.0000
     63 H13R        7.3430   -5.9130    0.0750 H         1 SDP1        0.0000
     64 C214        5.6920   -5.4560    1.2740 C.2       1 SDP1        0.0000
     65 H14R        5.5150   -6.5320    1.4330 H         1 SDP1        0.0000
     66 C215        4.7160   -4.5240    1.9490 C.3       1 SDP1        0.0000
     67 H15R        4.2020   -3.9080    1.1750 H         1 SDP1        0.0000
     68 H15S        5.2740   -3.8000    2.5870 H         1 SDP1        0.0000
     69 C216        3.6810   -5.2480    2.7860 C.2       1 SDP1        0.0000
     70 H16R        3.7560   -6.3450    2.8370 H         1 SDP1        0.0000
     71 C217        2.6860   -4.6370    3.4520 C.2       1 SDP1        0.0000
     72 H17R        1.9750   -5.2380    4.0390 H         1 SDP1        0.0000
     73 C218        2.4930   -3.1460    3.4500 C.3       1 SDP1        0.0000
     74 H18R        2.3280   -2.8200    2.3980 H         1 SDP1        0.0000
     75 H18S        3.4510   -2.6830    3.7740 H         1 SDP1        0.0000
     76 C219        1.3780   -2.5890    4.3030 C.2       1 SDP1        0.0000
     77 H19R        0.7780   -3.3380    4.8440 H         1 SDP1        0.0000
     78 C220        1.0460   -1.2890    4.4530 C.2       1 SDP1        0.0000
     79 H20R        0.2000   -1.0530    5.1170 H         1 SDP1        0.0000
     80 C221        1.6730   -0.0480    3.8530 C.3       1 SDP1        0.0000
     81 H21R        1.8260    0.6990    4.6670 H         1 SDP1        0.0000
     82 H21S        0.9390    0.4220    3.1620 H         1 SDP1        0.0000
     83 C222        3.0190   -0.1430    3.1120 C.3       1 SDP1        0.0000
     84 H22R        2.9640   -0.7930    2.2210 H         1 SDP1        0.0000
     85 H22S        3.8160   -0.5200    3.7880 H         1 SDP1        0.0000
     86 H22T        3.3230    0.8630    2.7600 H         1 SDP1        0.0000
     87 C33         6.9230    2.2510    6.5550 C.3       1 SDP1        0.0000
     88 H3X         7.6530    2.3780    5.7230 H         1 SDP1        0.0000
     89 H3Y         6.5310    1.2080    6.4930 H         1 SDP1        0.0000
     90 C34         7.6650    2.3860    7.8910 C.3       1 SDP1        0.0000
     91 H4X         6.9640    2.1630    8.7260 H         1 SDP1        0.0000
     92 H4Y         8.0220    3.4320    8.0150 H         1 SDP1        0.0000
     93 C35         8.8640    1.4260    7.9570 C.3       1 SDP1        0.0000
     94 H5X         9.5440    1.6550    7.1060 H         1 SDP1        0.0000
     95 H5Y         8.5020    0.3810    7.8240 H         1 SDP1        0.0000
     96 C36         9.6630    1.5150    9.2650 C.3       1 SDP1        0.0000
     97 H6X         9.0090    1.2260   10.1180 H         1 SDP1        0.0000
     98 H6Y         9.9850    2.5680    9.4240 H         1 SDP1        0.0000
     99 C37        10.9050    0.6100    9.2470 C.3       1 SDP1        0.0000
    100 H7X        11.5440    0.8910    8.3800 H         1 SDP1        0.0000
    101 H7Y        10.5870   -0.4460    9.1020 H         1 SDP1        0.0000
    102 C38        11.7390    0.7130   10.5310 C.3       1 SDP1        0.0000
    103 H8X        11.1090    0.4190   11.4000 H         1 SDP1        0.0000
    104 H8Y        12.0480    1.7720   10.6800 H         1 SDP1        0.0000
    105 C39        12.9930   -0.1730   10.4950 C.3       1 SDP1        0.0000
    106 H9X        13.6230    0.1220    9.6260 H         1 SDP1        0.0000
    107 H9Y        12.6880   -1.2330   10.3480 H         1 SDP1        0.0000
    108 C310       13.8280   -0.0630   11.7790 C.3       1 SDP1        0.0000
    109 H10X       13.1970   -0.3550   12.6480 H         1 SDP1        0.0000
    110 H10Y       14.1330    0.9970   11.9240 H         1 SDP1        0.0000
    111 C311       15.0850   -0.9450   11.7570 C.3       1 SDP1        0.0000
    112 H11X       15.7220   -0.6540   10.8920 H         1 SDP1        0.0000
    113 H11Y       14.7840   -2.0070   11.6130 H         1 SDP1        0.0000
    114 C312       15.9050   -0.8250   13.0490 C.3       1 SDP1        0.0000
    115 H12X       15.2660   -1.1150   13.9130 H         1 SDP1        0.0000
    116 H12Y       16.2050    0.2370   13.1920 H         1 SDP1        0.0000
    117 C313       17.1650   -1.7020   13.0440 C.3       1 SDP1        0.0000
    118 H13X       17.8070   -1.4140   12.1820 H         1 SDP1        0.0000
    119 H13Y       16.8680   -2.7650   12.9020 H         1 SDP1        0.0000
    120 C314       17.9780   -1.5760   14.3420 C.3       1 SDP1        0.0000
    121 H14X       17.3350   -1.8650   15.2030 H         1 SDP1        0.0000
    122 H14Y       18.2750   -0.5120   14.4820 H         1 SDP1        0.0000
    123 C315       19.2380   -2.4520   14.3410 C.3       1 SDP1        0.0000
    124 H15X       19.8820   -2.1620   13.4800 H         1 SDP1        0.0000
    125 H15Y       18.9420   -3.5160   14.2010 H         1 SDP1        0.0000
    126 C316       20.0540   -2.3290   15.6350 C.3       1 SDP1        0.0000
    127 H16X       19.4200   -2.6180   16.5020 H         1 SDP1        0.0000
    128 H16Y       20.3570   -1.2690   15.7840 H         1 SDP1        0.0000
    129 C317       21.3100   -3.2110   15.6170 C.3       1 SDP1        0.0000
    130 H17X       21.9340   -2.9240   14.7410 H         1 SDP1        0.0000
    131 H17Y       21.0000   -4.2680   15.4570 H         1 SDP1        0.0000
    132 C318       22.1470   -3.1120   16.8950 C.3       1 SDP1        0.0000
    133 H18X       21.5530   -3.4320   17.7790 H         1 SDP1        0.0000
    134 H18Y       22.5000   -2.0690   17.0540 H         1 SDP1        0.0000
    135 H18Z       23.0380   -3.7710   16.8210 H         1 SDP1        0.0000
@<TRIPOS>BOND
     1   49   48 1 
     2   51   50 1 
     3    8    7 ar
     4   44   43 1 
     5   56   55 1 
     6   48   50 2 
     7   48   45 1 
     8   50   52 1 
     9    9    7 ar
    10   46   45 1 
    11    7    5 1 
    12   53   52 1 
    13   43   45 1 
    14   43   41 2 
    15   55   52 1 
    16   55   57 2 
    17   42   41 1 
    18   45   47 1 
    19    3    1 1 
    20   52   54 1 
    21   58   57 1 
    22   11   10 1 
    23   41   38 1 
    24   57   59 1 
    25   28   26 1 
    26   39   38 1 
    27   60   59 1 
    28    4    1 1 
    29    1    5 1 
    30    1    2 1 
    31    5   10 1 
    32    5    6 1 
    33   12   10 1 
    34   10   16 1 
    35   38   26 1 
    36   38   40 1 
    37   63   62 1 
    38   59   62 1 
    39   59   61 1 
    40   15   13 2 
    41   26   27 1 
    42   26   24 1 
    43   20   18 1 
    44   62   64 2 
    45   19   18 1 
    46   24   25 2 
    47   24   23 1 
    48   18   17 1 
    49   18   21 1 
    50   16   13 1 
    51   67   66 1 
    52   64   65 1 
    53   64   66 1 
    54   13   17 1 
    55   13   14 1 
    56   23   21 1 
    57   66   68 1 
    58   66   69 1 
    59   84   83 1 
    60   21   22 1 
    61   21   29 1 
    62   74   73 1 
    63   30   29 1 
    64   86   83 1 
    65   69   70 1 
    66   69   71 2 
    67   83   85 1 
    68   83   80 1 
    69   82   80 1 
    70   29   31 1 
    71   29   32 1 
    72   73   71 1 
    73   73   75 1 
    74   73   76 1 
    75   71   72 1 
    76   80   78 1 
    77   80   81 1 
    78   76   78 2 
    79   76   77 1 
    80   32   33 1 
    81   78   79 1 
    82   34   33 2 
    83   33   35 1 
    84   88   87 1 
    85   37   35 1 
    86   35   87 1 
    87   35   36 1 
    88   89   87 1 
    89   87   90 1 
    90   94   93 1 
    91   95   93 1 
    92   90   93 1 
    93   90   92 1 
    94   90   91 1 
    95   93   96 1 
    96  100   99 1 
    97  101   99 1 
    98   99   96 1 
    99   99  102 1 
   100   96   98 1 
   101   96   97 1 
   102  106  105 1 
   103  107  105 1 
   104  105  102 1 
   105  105  108 1 
   106  102  104 1 
   107  102  103 1 
   108  112  111 1 
   109  113  111 1 
   110  111  108 1 
   111  111  114 1 
   112  108  110 1 
   113  108  109 1 
   114  118  117 1 
   115  119  117 1 
   116  117  114 1 
   117  117  120 1 
   118  114  116 1 
   119  114  115 1 
   120  124  123 1 
   121  125  123 1 
   122  123  120 1 
   123  123  126 1 
   124  120  122 1 
   125  120  121 1 
   126  130  129 1 
   127  131  129 1 
   128  129  126 1 
   129  129  132 1 
   130  126  128 1 
   131  126  127 1 
   132  135  132 1 
   133  132  134 1 
   134  132  133 1 
