@<TRIPOS>MOLECULE
C:\Users\Praveer\PycharmProjects\pdb_to_mol2_converter\data\pdb\sds.pdb
   42    41     0     0     0
SMALL
GASTEIGER

@<TRIPOS>ATOM
      1 S           1.4530    0.0010   -0.0010 S.3       1 SDS1        0.0000
      2 OS1         1.8750    1.5100   -0.0040 O.3       1 SDS1        0.0000
      3 OS2         2.0320   -0.5090   -1.2310 O.2       1 SDS1        0.0000
      4 OS3         2.0470   -0.5660    1.1970 O.3       1 SDS1        0.0000
      5 OS4         0.0010    0.0040   -0.0010 O.2       1 SDS1        0.0000
      6 C1          1.4130    2.2390    1.1280 C.3       1 SDS1        0.0000
      7 H11         1.8190    1.8140    2.0770 H         1 SDS1        0.0000
      8 H12         0.2970    2.2410    1.1800 H         1 SDS1        0.0000
      9 C2          1.8950    3.6900    1.0000 C.3       1 SDS1        0.0000
     10 H21         1.5010    4.1160    0.0510 H         1 SDS1        0.0000
     11 H22         3.0060    3.6930    0.9380 H         1 SDS1        0.0000
     12 C3          1.4460    4.5630    2.1790 C.3       1 SDS1        0.0000
     13 H31         1.8380    4.1190    3.1210 H         1 SDS1        0.0000
     14 H32         0.3350    4.5450    2.2340 H         1 SDS1        0.0000
     15 C4          1.9280    6.0150    2.0590 C.3       1 SDS1        0.0000
     16 H41         1.5350    6.4480    1.1120 H         1 SDS1        0.0000
     17 H42         3.0390    6.0220    1.9990 H         1 SDS1        0.0000
     18 C5          1.4790    6.8880    3.2390 C.3       1 SDS1        0.0000
     19 H51         1.8700    6.4470    4.1840 H         1 SDS1        0.0000
     20 H52         0.3670    6.8760    3.2960 H         1 SDS1        0.0000
     21 C6          1.9640    8.3390    3.1210 C.3       1 SDS1        0.0000
     22 H61         1.5730    8.7760    2.1750 H         1 SDS1        0.0000
     23 H62         3.0750    8.3460    3.0620 H         1 SDS1        0.0000
     24 C7          1.5160    9.2110    4.3020 C.3       1 SDS1        0.0000
     25 H71         1.9060    8.7700    5.2470 H         1 SDS1        0.0000
     26 H72         0.4050    9.2030    4.3580 H         1 SDS1        0.0000
     27 C8          2.0040   10.6610    4.1850 C.3       1 SDS1        0.0000
     28 H81         1.6140   11.1010    3.2400 H         1 SDS1        0.0000
     29 H82         3.1160   10.6680    4.1280 H         1 SDS1        0.0000
     30 C9          1.5570   11.5320    5.3670 C.3       1 SDS1        0.0000
     31 H91         1.9460   11.0910    6.3120 H         1 SDS1        0.0000
     32 H92         0.4450   11.5260    5.4230 H         1 SDS1        0.0000
     33 C10         2.0460   12.9820    5.2510 C.3       1 SDS1        0.0000
     34 H101        1.6580   13.4240    4.3070 H         1 SDS1        0.0000
     35 H102        3.1580   12.9880    5.1950 H         1 SDS1        0.0000
     36 C11         1.6000   13.8540    6.4330 C.3       1 SDS1        0.0000
     37 H111        1.9870   13.4040    7.3760 H         1 SDS1        0.0000
     38 H112        0.4880   13.8400    6.4880 H         1 SDS1        0.0000
     39 C12         2.0810   15.3040    6.3320 C.3       1 SDS1        0.0000
     40 H121        1.6870   15.7810    5.4100 H         1 SDS1        0.0000
     41 H122        3.1910   15.3430    6.3000 H         1 SDS1        0.0000
     42 H123        1.7330   15.8920    7.2090 H         1 SDS1        0.0000
@<TRIPOS>BOND
     1    3    1 2 
     2    2    1 1 
     3    2    6 1 
     4    1    5 2 
     5    1    4 1 
     6   10    9 1 
     7   11    9 1 
     8    9    6 1 
     9    9   12 1 
    10   16   15 1 
    11    6    8 1 
    12    6    7 1 
    13   17   15 1 
    14   15   12 1 
    15   15   18 1 
    16   22   21 1 
    17   12   14 1 
    18   12   13 1 
    19   23   21 1 
    20   21   18 1 
    21   21   24 1 
    22   18   20 1 
    23   18   19 1 
    24   28   27 1 
    25   29   27 1 
    26   27   24 1 
    27   27   30 1 
    28   24   26 1 
    29   24   25 1 
    30   34   33 1 
    31   35   33 1 
    32   33   30 1 
    33   33   36 1 
    34   30   32 1 
    35   30   31 1 
    36   40   39 1 
    37   41   39 1 
    38   39   36 1 
    39   39   42 1 
    40   36   38 1 
    41   36   37 1 
