@<TRIPOS>MOLECULE
C:\Users\Praveer\PycharmProjects\pdb_to_mol2_converter\data\pdb\slpa.pdb
  120   119     0     0     0
SMALL
GASTEIGER

@<TRIPOS>ATOM
      1 P           1.3530    0.1640   -0.1310 P.3       1 SLP1        0.0000
      2 O13         1.8540   -0.3390   -1.4200 O.2       1 SLP1        0.0000
      3 O14         1.9280   -0.3850    1.1070 O.3       1 SLP1        0.0000
      4 O12         1.7880    1.6670   -0.1050 O.3       1 SLP1        0.0000
      5 H12         2.7480    1.6620   -0.0570 H         1 SLP1        0.0000
      6 O11        -0.2330    0.1420   -0.0860 O.3       1 SLP1        0.0000
      7 C1         -0.8420   -1.1520   -0.1460 C.3       1 SLP1        0.0000
      8 HA         -0.4150   -1.8370    0.6250 H         1 SLP1        0.0000
      9 HB         -0.6810   -1.6010   -1.1560 H         1 SLP1        0.0000
     10 C2         -2.3710   -1.0600    0.0900 C.3       1 SLP1        0.0000
     11 HS         -2.5510   -0.7380    1.1440 H         1 SLP1        0.0000
     12 O21        -2.9510   -2.3480   -0.1950 O.3       1 SLP1        0.0000
     13 C21        -2.7700   -3.2440    0.7630 C.2       1 SLP1        0.0000
     14 O22        -2.3720   -3.0200    1.8920 O.2       1 SLP1        0.0000
     15 C22        -3.1160   -4.6340    0.2340 C.3       1 SLP1        0.0000
     16 H2R        -2.2450   -5.2870    0.4510 H         1 SLP1        0.0000
     17 H2S        -3.2600   -4.5890   -0.8640 H         1 SLP1        0.0000
     18 C3         -3.0250    0.0100   -0.8270 C.3       1 SLP1        0.0000
     19 HX         -2.8840   -0.3360   -1.8780 H         1 SLP1        0.0000
     20 HY         -2.4670    0.9640   -0.6920 H         1 SLP1        0.0000
     21 O31        -4.4260    0.1990   -0.5030 O.3       1 SLP1        0.0000
     22 C31        -5.0650    0.9540   -1.3900 C.2       1 SLP1        0.0000
     23 O32        -4.5790    1.4210   -2.4040 O.2       1 SLP1        0.0000
     24 C32        -6.5130    1.1620   -0.9370 C.3       1 SLP1        0.0000
     25 H2X        -6.4890    1.6600    0.0530 H         1 SLP1        0.0000
     26 H2Y        -6.9820    0.1640   -0.8230 H         1 SLP1        0.0000
     27 C23        -4.3750   -5.2030    0.9200 C.3       1 SLP1        0.0000
     28 H3R        -4.2300   -5.2380    2.0240 H         1 SLP1        0.0000
     29 H3S        -4.5320   -6.2490    0.5710 H         1 SLP1        0.0000
     30 C24        -5.6280   -4.3830    0.5910 C.3       1 SLP1        0.0000
     31 H4R        -5.7410   -4.3000   -0.5130 H         1 SLP1        0.0000
     32 H4S        -5.5050   -3.3510    0.9930 H         1 SLP1        0.0000
     33 C25        -6.9050   -4.9870    1.1850 C.3       1 SLP1        0.0000
     34 H5R        -6.7350   -5.1710    2.2690 H         1 SLP1        0.0000
     35 H5S        -7.1130   -5.9670    0.7020 H         1 SLP1        0.0000
     36 C26        -8.1130   -4.0560    1.0090 C.3       1 SLP1        0.0000
     37 H6R        -8.2200   -3.8050   -0.0700 H         1 SLP1        0.0000
     38 H6S        -7.9110   -3.1030    1.5490 H         1 SLP1        0.0000
     39 C27        -9.4430   -4.6470    1.5090 C.3       1 SLP1        0.0000
     40 H7R        -9.7320   -5.4820    0.8300 H         1 SLP1        0.0000
     41 H7S       -10.2310   -3.8640    1.4260 H         1 SLP1        0.0000
     42 C28        -9.4260   -5.1890    2.9530 C.3       1 SLP1        0.0000
     43 H8R        -8.7390   -6.0630    2.9990 H         1 SLP1        0.0000
     44 H8S       -10.4410   -5.5890    3.1690 H         1 SLP1        0.0000
     45 C29        -9.0000   -4.1540    3.9660 C.2       1 SLP1        0.0000
     46 H9R        -7.9290   -3.9000    3.9270 H         1 SLP1        0.0000
     47 C210       -9.7730   -3.5220    4.8720 C.2       1 SLP1        0.0000
     48 H10R       -9.2950   -2.7920    5.5430 H         1 SLP1        0.0000
     49 C211      -11.2570   -3.6970    5.0930 C.3       1 SLP1        0.0000
     50 H11R      -11.4350   -3.9060    6.1700 H         1 SLP1        0.0000
     51 H11S      -11.6410   -4.5880    4.5520 H         1 SLP1        0.0000
     52 C212      -12.0180   -2.4530    4.6980 C.2       1 SLP1        0.0000
     53 H12R      -11.5540   -1.5010    4.9990 H         1 SLP1        0.0000
     54 C213      -13.1770   -2.4120    4.0120 C.2       1 SLP1        0.0000
     55 H13R      -13.6150   -1.4310    3.7720 H         1 SLP1        0.0000
     56 C214      -13.9670   -3.5980    3.5170 C.3       1 SLP1        0.0000
     57 H14R      -15.0550   -3.3710    3.5530 H         1 SLP1        0.0000
     58 H14S      -13.8110   -4.4840    4.1750 H         1 SLP1        0.0000
     59 C215      -13.5950   -4.0050    2.0770 C.3       1 SLP1        0.0000
     60 H15R      -14.1740   -4.9190    1.8140 H         1 SLP1        0.0000
     61 H15S      -12.5150   -4.2730    2.0380 H         1 SLP1        0.0000
     62 C216      -13.8990   -2.9200    1.0310 C.3       1 SLP1        0.0000
     63 H16R      -13.2250   -2.0510    1.1980 H         1 SLP1        0.0000
     64 H16S      -14.9460   -2.5700    1.1760 H         1 SLP1        0.0000
     65 C217      -13.7410   -3.4000   -0.4220 C.3       1 SLP1        0.0000
     66 H17R      -14.0370   -2.5660   -1.0990 H         1 SLP1        0.0000
     67 H17S      -14.4520   -4.2390   -0.5990 H         1 SLP1        0.0000
     68 C218      -12.3260   -3.8570   -0.7900 C.3       1 SLP1        0.0000
     69 H18R      -12.0340   -4.7500   -0.1980 H         1 SLP1        0.0000
     70 H18S      -11.5920   -3.0470   -0.5880 H         1 SLP1        0.0000
     71 H18T      -12.2690   -4.1220   -1.8680 H         1 SLP1        0.0000
     72 C33        -7.3110    2.0210   -1.9470 C.3       1 SLP1        0.0000
     73 H3X        -7.3170    1.5170   -2.9410 H         1 SLP1        0.0000
     74 H3Y        -6.8040    3.0050   -2.0830 H         1 SLP1        0.0000
     75 C34        -8.7650    2.2790   -1.5210 C.3       1 SLP1        0.0000
     76 H4X        -8.7740    2.8050   -0.5400 H         1 SLP1        0.0000
     77 H4Y        -9.2890    1.3070   -1.3890 H         1 SLP1        0.0000
     78 C35        -9.5250    3.1270   -2.5540 C.3       1 SLP1        0.0000
     79 H5X        -9.5060    2.6010   -3.5350 H         1 SLP1        0.0000
     80 H5Y        -8.9960    4.0980   -2.6850 H         1 SLP1        0.0000
     81 C36       -10.9850    3.4050   -2.1690 C.3       1 SLP1        0.0000
     82 H6X       -11.0110    3.9400   -1.1940 H         1 SLP1        0.0000
     83 H6Y       -11.5200    2.4380   -2.0400 H         1 SLP1        0.0000
     84 C37       -11.7160    4.2480   -3.2270 C.3       1 SLP1        0.0000
     85 H7X       -11.6840    3.7120   -4.2020 H         1 SLP1        0.0000
     86 H7Y       -11.1770    5.2140   -3.3550 H         1 SLP1        0.0000
     87 C38       -13.1810    4.5380   -2.8640 C.3       1 SLP1        0.0000
     88 H8X       -13.2150    5.0770   -1.8910 H         1 SLP1        0.0000
     89 H8Y       -13.7220    3.5730   -2.7370 H         1 SLP1        0.0000
     90 C39       -13.9050    5.3800   -3.9270 C.3       1 SLP1        0.0000
     91 H9X       -13.8720    4.8430   -4.9020 H         1 SLP1        0.0000
     92 H9Y       -13.3660    6.3460   -4.0560 H         1 SLP1        0.0000
     93 C310      -15.3710    5.6690   -3.5640 C.3       1 SLP1        0.0000
     94 H10X      -15.4040    6.2070   -2.5900 H         1 SLP1        0.0000
     95 H10Y      -15.9100    4.7040   -3.4360 H         1 SLP1        0.0000
     96 C311      -16.0950    6.5110   -4.6260 C.3       1 SLP1        0.0000
     97 H11X      -16.0610    5.9730   -5.6000 H         1 SLP1        0.0000
     98 H11Y      -15.5550    7.4760   -4.7550 H         1 SLP1        0.0000
     99 C312      -17.5610    6.8030   -4.2680 C.3       1 SLP1        0.0000
    100 H12X      -17.5980    7.3430   -3.2960 H         1 SLP1        0.0000
    101 H12Y      -18.1040    5.8400   -4.1410 H         1 SLP1        0.0000
    102 C313      -18.2750    7.6450   -5.3370 C.3       1 SLP1        0.0000
    103 H13X      -18.2370    7.1050   -6.3090 H         1 SLP1        0.0000
    104 H13Y      -17.7310    8.6070   -5.4640 H         1 SLP1        0.0000
    105 C314      -19.7400    7.9420   -4.9890 C.3       1 SLP1        0.0000
    106 H14X      -19.7810    8.4830   -4.0170 H         1 SLP1        0.0000
    107 H14Y      -20.2870    6.9810   -4.8630 H         1 SLP1        0.0000
    108 C315      -20.4480    8.7840   -6.0610 C.3       1 SLP1        0.0000
    109 H15X      -20.4100    8.2420   -7.0330 H         1 SLP1        0.0000
    110 H15Y      -19.9030    9.7470   -6.1860 H         1 SLP1        0.0000
    111 C316      -21.9120    9.0740   -5.7000 C.3       1 SLP1        0.0000
    112 H16X      -21.9480    9.6120   -4.7260 H         1 SLP1        0.0000
    113 H16Y      -22.4540    8.1100   -5.5710 H         1 SLP1        0.0000
    114 C317      -22.6440    9.9140   -6.7540 C.3       1 SLP1        0.0000
    115 H17X      -22.6090    9.3830   -7.7320 H         1 SLP1        0.0000
    116 H17Y      -22.1050   10.8780   -6.8910 H         1 SLP1        0.0000
    117 C318      -24.1030   10.1940   -6.3790 C.3       1 SLP1        0.0000
    118 H18X      -24.1600   10.7530   -5.4190 H         1 SLP1        0.0000
    119 H18Y      -24.6680    9.2430   -6.2690 H         1 SLP1        0.0000
    120 H18Z      -24.5970   10.8020   -7.1640 H         1 SLP1        0.0000
@<TRIPOS>BOND
     1  115  114 1 
     2  120  117 1 
     3  109  108 1 
     4  116  114 1 
     5  114  117 1 
     6  114  111 1 
     7  117  119 1 
     8  117  118 1 
     9  103  102 1 
    10  110  108 1 
    11  108  111 1 
    12  108  105 1 
    13  111  113 1 
    14  111  112 1 
    15   97   96 1 
    16  104  102 1 
    17  102  105 1 
    18  102   99 1 
    19  105  107 1 
    20  105  106 1 
    21   91   90 1 
    22   98   96 1 
    23   96   99 1 
    24   96   93 1 
    25   99  101 1 
    26   99  100 1 
    27   85   84 1 
    28   92   90 1 
    29   90   93 1 
    30   90   87 1 
    31   93   95 1 
    32   93   94 1 
    33   79   78 1 
    34   86   84 1 
    35   84   87 1 
    36   84   81 1 
    37   73   72 1 
    38   87   89 1 
    39   87   88 1 
    40   80   78 1 
    41   78   81 1 
    42   78   75 1 
    43   23   22 2 
    44   81   83 1 
    45   81   82 1 
    46   74   72 1 
    47   72   75 1 
    48   72   24 1 
    49   19   18 1 
    50   71   68 1 
    51   75   77 1 
    52   75   76 1 
    53    2    1 2 
    54   22   24 1 
    55   22   21 1 
    56    9    7 1 
    57   66   65 1 
    58   24   26 1 
    59   24   25 1 
    60   17   15 1 
    61   18   20 1 
    62   18   21 1 
    63   18   10 1 
    64   68   70 1 
    65   68   65 1 
    66   68   69 1 
    67   67   65 1 
    68   31   30 1 
    69   65   62 1 
    70   12   10 1 
    71   12   13 1 
    72    7    6 1 
    73    7   10 1 
    74    7    8 1 
    75    1    4 1 
    76    1    6 1 
    77    1    3 1 
    78    4    5 1 
    79   37   36 1 
    80   10   11 1 
    81   15   16 1 
    82   15   13 1 
    83   15   27 1 
    84   29   27 1 
    85   30   27 1 
    86   30   32 1 
    87   30   33 1 
    88   35   33 1 
    89   13   14 2 
    90   40   39 1 
    91   27   28 1 
    92   36   33 1 
    93   36   39 1 
    94   36   38 1 
    95   62   64 1 
    96   62   63 1 
    97   62   59 1 
    98   33   34 1 
    99   41   39 1 
   100   39   42 1 
   101   60   59 1 
   102   61   59 1 
   103   59   56 1 
   104   42   43 1 
   105   42   44 1 
   106   42   45 1 
   107   56   57 1 
   108   56   54 1 
   109   56   58 1 
   110   55   54 1 
   111   46   45 1 
   112   45   47 2 
   113   54   52 2 
   114   51   49 1 
   115   52   53 1 
   116   52   49 1 
   117   47   49 1 
   118   47   48 1 
   119   49   50 1 
