@<TRIPOS>MOLECULE
C:\Users\Praveer\PycharmProjects\pdb_to_mol2_converter\data\pdb\slpc.pdb
  138   137     0     0     0
SMALL
GASTEIGER

@<TRIPOS>ATOM
      1 N           1.4680    0.0890   -0.0090 N.4       1 SLP1        0.0000
      2 C13         1.9650   -0.6360   -1.2200 C.3       1 SLP1        0.0000
      3 H13A        1.6100   -1.6570   -1.2360 H         1 SLP1        0.0000
      4 H13B        3.0460   -0.6380   -1.2570 H         1 SLP1        0.0000
      5 H13C        1.6020   -0.1390   -2.1140 H         1 SLP1        0.0000
      6 C14         1.9390   -0.5910    1.2410 C.3       1 SLP1        0.0000
      7 H14A        3.0190   -0.6060    1.2980 H         1 SLP1        0.0000
      8 H14B        1.5770   -1.6100    1.2850 H         1 SLP1        0.0000
      9 H14C        1.5590   -0.0660    2.1130 H         1 SLP1        0.0000
     10 C15        -0.0350    0.0920   -0.0060 C.3       1 SLP1        0.0000
     11 H15A       -0.4640   -0.8940   -0.0100 H         1 SLP1        0.0000
     12 H15B       -0.4250    0.6610   -0.8540 H         1 SLP1        0.0000
     13 H15C       -0.4090    0.6520    0.8540 H         1 SLP1        0.0000
     14 C12         1.9400    1.5360   -0.0210 C.3       1 SLP1        0.0000
     15 H12A        3.0040    1.6080    0.1410 H         1 SLP1        0.0000
     16 H12B        1.4700    2.0520    0.8240 H         1 SLP1        0.0000
     17 C11         1.5670    2.3810   -1.2580 C.3       1 SLP1        0.0000
     18 H11A        0.8900    1.8460   -1.9630 H         1 SLP1        0.0000
     19 H11B        2.4930    2.6180   -1.8280 H         1 SLP1        0.0000
     20 P          -0.4500    3.5140   -0.1180 P.3       1 SLP1        0.0000
     21 O13        -1.3380    2.7010   -0.9790 O.2       1 SLP1        0.0000
     22 O14        -0.2250    2.9910    1.2490 O.3       1 SLP1        0.0000
     23 O12         0.9730    3.6010   -0.8190 O.3       1 SLP1        0.0000
     24 O11        -0.9570    5.0190   -0.0600 O.3       1 SLP1        0.0000
     25 C1         -2.2880    5.2180    0.4330 C.3       1 SLP1        0.0000
     26 HA         -2.4500    4.6760    1.3960 H         1 SLP1        0.0000
     27 HB         -3.0310    4.8440   -0.3110 H         1 SLP1        0.0000
     28 C2         -2.5850    6.7230    0.6770 C.3       1 SLP1        0.0000
     29 HS         -1.9120    7.0950    1.4850 H         1 SLP1        0.0000
     30 O21        -3.9770    6.8580    1.0290 O.3       1 SLP1        0.0000
     31 C21        -4.2610    6.5000    2.2740 C.2       1 SLP1        0.0000
     32 O22        -3.4560    6.2720    3.1560 O.2       1 SLP1        0.0000
     33 C22        -5.7760    6.3660    2.4310 C.3       1 SLP1        0.0000
     34 H2R        -5.9650    5.3620    2.8670 H         1 SLP1        0.0000
     35 H2S        -6.2580    6.4130    1.4350 H         1 SLP1        0.0000
     36 C3         -2.2940    7.5850   -0.5850 C.3       1 SLP1        0.0000
     37 HX         -2.9950    7.2400   -1.3820 H         1 SLP1        0.0000
     38 HY         -1.2520    7.3680   -0.9160 H         1 SLP1        0.0000
     39 O31        -2.4470    9.0000   -0.3070 O.3       1 SLP1        0.0000
     40 C31        -2.4310    9.7550   -1.4050 C.2       1 SLP1        0.0000
     41 O32        -2.3210    9.3380   -2.5440 O.2       1 SLP1        0.0000
     42 C32        -2.5610   11.2340   -1.0220 C.3       1 SLP1        0.0000
     43 H2X        -1.7110   11.4900   -0.3580 H         1 SLP1        0.0000
     44 H2Y        -3.5080   11.3640   -0.4610 H         1 SLP1        0.0000
     45 C23        -6.3530    7.4480    3.3670 C.3       1 SLP1        0.0000
     46 H3R        -5.8430    7.4130    4.3570 H         1 SLP1        0.0000
     47 H3S        -7.4320    7.2310    3.5390 H         1 SLP1        0.0000
     48 C24        -6.2280    8.8550    2.7710 C.3       1 SLP1        0.0000
     49 H4R        -6.6800    8.8710    1.7530 H         1 SLP1        0.0000
     50 H4S        -5.1490    9.1130    2.6630 H         1 SLP1        0.0000
     51 C25        -6.9040    9.9260    3.6350 C.3       1 SLP1        0.0000
     52 H5R        -6.5310    9.8240    4.6790 H         1 SLP1        0.0000
     53 H5S        -8.0030    9.7540    3.6480 H         1 SLP1        0.0000
     54 C26        -6.6090   11.3440    3.1260 C.3       1 SLP1        0.0000
     55 H6R        -6.9050   11.4100    2.0540 H         1 SLP1        0.0000
     56 H6S        -5.5110   11.5190    3.1750 H         1 SLP1        0.0000
     57 C27        -7.3320   12.4600    3.9020 C.3       1 SLP1        0.0000
     58 H7R        -8.4220   12.3910    3.6810 H         1 SLP1        0.0000
     59 H7S        -6.9770   13.4430    3.5170 H         1 SLP1        0.0000
     60 C28        -7.1510   12.4280    5.4340 C.3       1 SLP1        0.0000
     61 H8R        -7.6320   11.5080    5.8320 H         1 SLP1        0.0000
     62 H8S        -7.7280   13.2810    5.8540 H         1 SLP1        0.0000
     63 C29        -5.7010   12.4680    5.8560 C.2       1 SLP1        0.0000
     64 H9R        -5.1500   11.5350    5.6590 H         1 SLP1        0.0000
     65 C210       -5.0360   13.4960    6.4160 C.2       1 SLP1        0.0000
     66 H10R       -3.9730   13.3520    6.6670 H         1 SLP1        0.0000
     67 C211       -5.5780   14.8640    6.7590 C.3       1 SLP1        0.0000
     68 H11R       -5.3430   15.0860    7.8230 H         1 SLP1        0.0000
     69 H11S       -6.6870   14.8850    6.6930 H         1 SLP1        0.0000
     70 C212       -4.9640   15.9310    5.8840 C.2       1 SLP1        0.0000
     71 H12R       -3.8820   15.8280    5.7040 H         1 SLP1        0.0000
     72 C213       -5.6120   16.9600    5.3050 C.2       1 SLP1        0.0000
     73 H13R       -5.0420   17.6580    4.6720 H         1 SLP1        0.0000
     74 C214       -7.0830   17.2740    5.4300 C.3       1 SLP1        0.0000
     75 H14R       -7.2380   18.3750    5.4120 H         1 SLP1        0.0000
     76 H14S       -7.4850   16.9170    6.4050 H         1 SLP1        0.0000
     77 C215       -7.9280   16.6390    4.3070 C.3       1 SLP1        0.0000
     78 H15R       -8.9990   16.8710    4.5050 H         1 SLP1        0.0000
     79 H15S       -7.8140   15.5330    4.3410 H         1 SLP1        0.0000
     80 C216       -7.5750   17.1550    2.9010 C.3       1 SLP1        0.0000
     81 H16R       -6.5500   16.8140    2.6320 H         1 SLP1        0.0000
     82 H16S       -7.5670   18.2680    2.9230 H         1 SLP1        0.0000
     83 C217       -8.5550   16.6950    1.8090 C.3       1 SLP1        0.0000
     84 H17R       -8.2470   17.1620    0.8450 H         1 SLP1        0.0000
     85 H17S       -9.5700   17.0820    2.0550 H         1 SLP1        0.0000
     86 C218       -8.6290   15.1760    1.6210 C.3       1 SLP1        0.0000
     87 H18R       -9.0230   14.6860    2.5370 H         1 SLP1        0.0000
     88 H18S       -7.6210   14.7620    1.4070 H         1 SLP1        0.0000
     89 H18T       -9.3020   14.9220    0.7740 H         1 SLP1        0.0000
     90 C33        -2.5510   12.1530   -2.2680 C.3       1 SLP1        0.0000
     91 H3X        -3.4080   11.8880   -2.9290 H         1 SLP1        0.0000
     92 H3Y        -1.6160   11.9750   -2.8490 H         1 SLP1        0.0000
     93 C34        -2.6340   13.6510   -1.9340 C.3       1 SLP1        0.0000
     94 H4X        -1.7710   13.9320   -1.2900 H         1 SLP1        0.0000
     95 H4Y        -3.5660   13.8490   -1.3600 H         1 SLP1        0.0000
     96 C35        -2.6250   14.5260   -3.2000 C.3       1 SLP1        0.0000
     97 H5X        -3.4860   14.2360   -3.8420 H         1 SLP1        0.0000
     98 H5Y        -1.6930   14.3190   -3.7730 H         1 SLP1        0.0000
     99 C36        -2.7060   16.0350   -2.9130 C.3       1 SLP1        0.0000
    100 H6X        -1.8420   16.3330   -2.2790 H         1 SLP1        0.0000
    101 H6Y        -3.6370   16.2480   -2.3420 H         1 SLP1        0.0000
    102 C37        -2.7020   16.8830   -4.1970 C.3       1 SLP1        0.0000
    103 H7X        -3.5640   16.5830   -4.8330 H         1 SLP1        0.0000
    104 H7Y        -1.7710   16.6710   -4.7690 H         1 SLP1        0.0000
    105 C38        -2.7850   18.3940   -3.9270 C.3       1 SLP1        0.0000
    106 H8X        -1.9220   18.7000   -3.2950 H         1 SLP1        0.0000
    107 H8Y        -3.7160   18.6110   -3.3560 H         1 SLP1        0.0000
    108 C39        -2.7820   19.2290   -5.2170 C.3       1 SLP1        0.0000
    109 H9X        -3.6450   18.9230   -5.8500 H         1 SLP1        0.0000
    110 H9Y        -1.8520   19.0110   -5.7880 H         1 SLP1        0.0000
    111 C310       -2.8660   20.7420   -4.9580 C.3       1 SLP1        0.0000
    112 H10X       -2.0030   21.0520   -4.3280 H         1 SLP1        0.0000
    113 H10Y       -3.7970   20.9630   -4.3900 H         1 SLP1        0.0000
    114 C311       -2.8630   21.5670   -6.2540 C.3       1 SLP1        0.0000
    115 H11X       -3.7260   21.2570   -6.8850 H         1 SLP1        0.0000
    116 H11Y       -1.9320   21.3460   -6.8230 H         1 SLP1        0.0000
    117 C312       -2.9470   23.0800   -6.0030 C.3       1 SLP1        0.0000
    118 H12X       -2.0830   23.3940   -5.3740 H         1 SLP1        0.0000
    119 H12Y       -3.8770   23.3050   -5.4360 H         1 SLP1        0.0000
    120 C313       -2.9430   23.8970   -7.3040 C.3       1 SLP1        0.0000
    121 H13X       -3.8060   23.5820   -7.9330 H         1 SLP1        0.0000
    122 H13Y       -2.0120   23.6720   -7.8710 H         1 SLP1        0.0000
    123 C314       -3.0260   25.4100   -7.0570 C.3       1 SLP1        0.0000
    124 H14X       -2.1630   25.7230   -6.4270 H         1 SLP1        0.0000
    125 H14Y       -3.9570   25.6340   -6.4890 H         1 SLP1        0.0000
    126 C315       -3.0230   26.2350   -8.3530 C.3       1 SLP1        0.0000
    127 H15X       -3.8870   25.9290   -8.9840 H         1 SLP1        0.0000
    128 H15Y       -2.0920   26.0180   -8.9230 H         1 SLP1        0.0000
    129 C316       -3.1070   27.7440   -8.0860 C.3       1 SLP1        0.0000
    130 H16X       -2.2430   28.0500   -7.4530 H         1 SLP1        0.0000
    131 H16Y       -4.0380   27.9610   -7.5150 H         1 SLP1        0.0000
    132 C317       -3.1040   28.5830   -9.3700 C.3       1 SLP1        0.0000
    133 H17X       -3.9680   28.2750  -10.0030 H         1 SLP1        0.0000
    134 H17Y       -2.1730   28.3640   -9.9410 H         1 SLP1        0.0000
    135 C318       -3.1880   30.0880   -9.1050 C.3       1 SLP1        0.0000
    136 H18X       -2.3210   30.4200   -8.4940 H         1 SLP1        0.0000
    137 H18Y       -4.1230   30.3310   -8.5550 H         1 SLP1        0.0000
    138 H18Z       -3.1830   30.6570  -10.0600 H         1 SLP1        0.0000
@<TRIPOS>BOND
     1  138  135 1 
     2  133  132 1 
     3  134  132 1 
     4  132  135 1 
     5  132  129 1 
     6  135  137 1 
     7  135  136 1 
     8  127  126 1 
     9  128  126 1 
    10  126  129 1 
    11  126  123 1 
    12  129  131 1 
    13  129  130 1 
    14  121  120 1 
    15  122  120 1 
    16  120  123 1 
    17  120  117 1 
    18  123  125 1 
    19  123  124 1 
    20  115  114 1 
    21  116  114 1 
    22  114  117 1 
    23  114  111 1 
    24  117  119 1 
    25  117  118 1 
    26  109  108 1 
    27  110  108 1 
    28  108  111 1 
    29  108  105 1 
    30  111  113 1 
    31  111  112 1 
    32  103  102 1 
    33  104  102 1 
    34  102  105 1 
    35  102   99 1 
    36  105  107 1 
    37  105  106 1 
    38   97   96 1 
    39   98   96 1 
    40   96   99 1 
    41   96   93 1 
    42   91   90 1 
    43   99  101 1 
    44   99  100 1 
    45   92   90 1 
    46   41   40 2 
    47   90   93 1 
    48   90   42 1 
    49    5    2 1 
    50   18   17 1 
    51   93   95 1 
    52   93   94 1 
    53   19   17 1 
    54   40   42 1 
    55   40   39 1 
    56   37   36 1 
    57   17   23 1 
    58   17   14 1 
    59    4    2 1 
    60    3    2 1 
    61    2    1 1 
    62   42   44 1 
    63   42   43 1 
    64   21   20 2 
    65   38   36 1 
    66   12   10 1 
    67   23   20 1 
    68   36   39 1 
    69   36   28 1 
    70   27   25 1 
    71   20   24 1 
    72   20   22 1 
    73   24   25 1 
    74   14    1 1 
    75   14   15 1 
    76   14   16 1 
    77   11   10 1 
    78    1   10 1 
    79    1    6 1 
    80   10   13 1 
    81   25   28 1 
    82   25   26 1 
    83   28   30 1 
    84   28   29 1 
    85   89   86 1 
    86   84   83 1 
    87   30   31 1 
    88    6    8 1 
    89    6    7 1 
    90    6    9 1 
    91   88   86 1 
    92   35   33 1 
    93   86   83 1 
    94   86   87 1 
    95   49   48 1 
    96   83   85 1 
    97   83   80 1 
    98   55   54 1 
    99   31   33 1 
   100   31   32 2 
   101   33   34 1 
   102   33   45 1 
   103   81   80 1 
   104   50   48 1 
   105   48   45 1 
   106   48   51 1 
   107   80   82 1 
   108   80   77 1 
   109   54   56 1 
   110   54   51 1 
   111   54   57 1 
   112   45   47 1 
   113   45   46 1 
   114   59   57 1 
   115   51   53 1 
   116   51   52 1 
   117   58   57 1 
   118   57   60 1 
   119   77   79 1 
   120   77   78 1 
   121   77   74 1 
   122   73   72 1 
   123   72   74 1 
   124   72   70 2 
   125   75   74 1 
   126   74   76 1 
   127   60   61 1 
   128   60   62 1 
   129   60   63 1 
   130   64   63 1 
   131   71   70 1 
   132   63   65 2 
   133   70   67 1 
   134   65   66 1 
   135   65   67 1 
   136   69   67 1 
   137   67   68 1 
