@<TRIPOS>MOLECULE
C:\Users\Praveer\PycharmProjects\pdb_to_mol2_converter\data\pdb\slpe.pdb
  129   128     0     0     0
SMALL
GASTEIGER

@<TRIPOS>ATOM
      1 N           1.1140    0.4800   -0.7850 N.4       1 SLP1        0.0000
      2 HN1         0.1130    0.3790   -0.5350 H         1 SLP1        0.0000
      3 HN2         1.5760   -0.4380   -0.9360 H         1 SLP1        0.0000
      4 HN3         1.1680    0.9790   -1.7220 H         1 SLP1        0.0000
      5 C12         1.8970    1.3490    0.1780 C.3       1 SLP1        0.0000
      6 H12A        1.9050    0.8410    1.1630 H         1 SLP1        0.0000
      7 H12B        1.3650    2.3180    0.2740 H         1 SLP1        0.0000
      8 C11         3.3470    1.6150   -0.3010 C.3       1 SLP1        0.0000
      9 H11A        3.9020    0.6580   -0.4420 H         1 SLP1        0.0000
     10 H11B        3.8680    2.1640    0.5200 H         1 SLP1        0.0000
     11 P           3.0680    1.8320   -2.8960 P.3       1 SLP1        0.0000
     12 O13         3.6230    0.4710   -2.9470 O.3       1 SLP1        0.0000
     13 O14         1.5900    1.8880   -2.9920 O.2       1 SLP1        0.0000
     14 O12         3.4090    2.4350   -1.4730 O.3       1 SLP1        0.0000
     15 O11         3.7650    2.7990   -3.9360 O.3       1 SLP1        0.0000
     16 C1          3.3880    2.6790   -5.3100 C.3       1 SLP1        0.0000
     17 HA          2.2780    2.6960   -5.4330 H         1 SLP1        0.0000
     18 HB          3.7780    1.7240   -5.7370 H         1 SLP1        0.0000
     19 C2          3.9860    3.8470   -6.1390 C.3       1 SLP1        0.0000
     20 HS          3.5160    4.8000   -5.7990 H         1 SLP1        0.0000
     21 O21         3.7420    3.5860   -7.5340 O.3       1 SLP1        0.0000
     22 C21         2.5080    3.8700   -7.9330 C.2       1 SLP1        0.0000
     23 O22         1.6710    4.4720   -7.2940 O.2       1 SLP1        0.0000
     24 C22         2.2730    3.2650   -9.3190 C.3       1 SLP1        0.0000
     25 H2R         1.3500    2.6510   -9.2450 H         1 SLP1        0.0000
     26 H2S         3.1190    2.5990   -9.5810 H         1 SLP1        0.0000
     27 C3          5.5170    3.9890   -5.9010 C.3       1 SLP1        0.0000
     28 HX          5.9880    3.0410   -6.2560 H         1 SLP1        0.0000
     29 HY          5.6880    4.0730   -4.8030 H         1 SLP1        0.0000
     30 O31         6.0570    5.1510   -6.5820 O.3       1 SLP1        0.0000
     31 C31         7.3900    5.1830   -6.5890 C.2       1 SLP1        0.0000
     32 O32         8.1150    4.3380   -6.1030 O.2       1 SLP1        0.0000
     33 C32         7.8770    6.4550   -7.2970 C.3       1 SLP1        0.0000
     34 H2X         7.4770    7.3280   -6.7430 H         1 SLP1        0.0000
     35 H2Y         7.4610    6.4610   -8.3240 H         1 SLP1        0.0000
     36 C23         2.0810    4.3480  -10.4010 C.3       1 SLP1        0.0000
     37 H3R         1.2440    5.0280  -10.1240 H         1 SLP1        0.0000
     38 H3S         1.8000    3.8450  -11.3560 H         1 SLP1        0.0000
     39 C24         3.3570    5.1640  -10.6430 C.3       1 SLP1        0.0000
     40 H4R         4.2060    4.4760  -10.8540 H         1 SLP1        0.0000
     41 H4S         3.6070    5.7350   -9.7200 H         1 SLP1        0.0000
     42 C25         3.2130    6.1520  -11.8080 C.3       1 SLP1        0.0000
     43 H5R         2.2960    6.7600  -11.6430 H         1 SLP1        0.0000
     44 H5S         3.0820    5.5900  -12.7580 H         1 SLP1        0.0000
     45 C26         4.4270    7.0860  -11.9250 C.3       1 SLP1        0.0000
     46 H6R         5.3500    6.4680  -12.0010 H         1 SLP1        0.0000
     47 H6S         4.5070    7.6840  -10.9890 H         1 SLP1        0.0000
     48 C27         4.3780    8.0400  -13.1310 C.3       1 SLP1        0.0000
     49 H7R         4.5030    7.4380  -14.0600 H         1 SLP1        0.0000
     50 H7S         5.2470    8.7350  -13.0670 H         1 SLP1        0.0000
     51 C28         3.0840    8.8700  -13.2700 C.3       1 SLP1        0.0000
     52 H8R         2.2370    8.1790  -13.4760 H         1 SLP1        0.0000
     53 H8S         3.1910    9.5010  -14.1800 H         1 SLP1        0.0000
     54 C29         2.7800    9.6970  -12.0440 C.2       1 SLP1        0.0000
     55 H9R         2.4390    9.1090  -11.1780 H         1 SLP1        0.0000
     56 C210        2.8920   11.0330  -11.9040 C.2       1 SLP1        0.0000
     57 H10R        2.6220   11.4770  -10.9340 H         1 SLP1        0.0000
     58 C211        3.3520   12.0290  -12.9420 C.3       1 SLP1        0.0000
     59 H11R        2.5910   12.8370  -13.0240 H         1 SLP1        0.0000
     60 H11S        3.3980   11.5650  -13.9510 H         1 SLP1        0.0000
     61 C212        4.6810   12.6370  -12.5630 C.2       1 SLP1        0.0000
     62 H12R        4.7950   12.8990  -11.5000 H         1 SLP1        0.0000
     63 C213        5.7200   12.8640  -13.3920 C.2       1 SLP1        0.0000
     64 H13R        6.6420   13.2990  -12.9780 H         1 SLP1        0.0000
     65 C214        5.7610   12.5800  -14.8720 C.3       1 SLP1        0.0000
     66 H14R        6.3790   13.3470  -15.3890 H         1 SLP1        0.0000
     67 H14S        4.7430   12.6460  -15.3210 H         1 SLP1        0.0000
     68 C215        6.3330   11.1850  -15.1980 C.3       1 SLP1        0.0000
     69 H15R        6.2770   11.0350  -16.3000 H         1 SLP1        0.0000
     70 H15S        5.6960   10.4060  -14.7230 H         1 SLP1        0.0000
     71 C216        7.7960   11.0010  -14.7590 C.3       1 SLP1        0.0000
     72 H16R        7.8500   11.0130  -13.6480 H         1 SLP1        0.0000
     73 H16S        8.3900   11.8630  -15.1370 H         1 SLP1        0.0000
     74 C217        8.4380    9.7020  -15.2730 C.3       1 SLP1        0.0000
     75 H17R        9.5040    9.6890  -14.9510 H         1 SLP1        0.0000
     76 H17S        8.4280    9.7160  -16.3870 H         1 SLP1        0.0000
     77 C218        7.7580    8.4200  -14.7820 C.3       1 SLP1        0.0000
     78 H18R        6.7190    8.3530  -15.1710 H         1 SLP1        0.0000
     79 H18S        7.7190    8.4030  -13.6720 H         1 SLP1        0.0000
     80 H18T        8.3170    7.5250  -15.1290 H         1 SLP1        0.0000
     81 C33         9.4240    6.5300   -7.3500 C.3       1 SLP1        0.0000
     82 H3X         9.8160    5.6500   -7.9100 H         1 SLP1        0.0000
     83 H3Y         9.8310    6.4740   -6.3140 H         1 SLP1        0.0000
     84 C34         9.9620    7.8110   -8.0120 C.3       1 SLP1        0.0000
     85 H4X         9.5900    8.6960   -7.4490 H         1 SLP1        0.0000
     86 H4Y         9.5700    7.8780   -9.0510 H         1 SLP1        0.0000
     87 C35        11.5020    7.8450   -8.0480 C.3       1 SLP1        0.0000
     88 H5X        11.8650    6.9530   -8.6050 H         1 SLP1        0.0000
     89 H5Y        11.8850    7.7690   -7.0060 H         1 SLP1        0.0000
     90 C36        12.0910    9.1090   -8.7000 C.3       1 SLP1        0.0000
     91 H6X        11.7410   10.0060   -8.1420 H         1 SLP1        0.0000
     92 H6Y        11.7150    9.1900   -9.7440 H         1 SLP1        0.0000
     93 C37        13.6320    9.1070   -8.7240 C.3       1 SLP1        0.0000
     94 H7X        13.9840    8.2090   -9.2800 H         1 SLP1        0.0000
     95 H7Y        14.0100    9.0260   -7.6810 H         1 SLP1        0.0000
     96 C38        14.2370   10.3620   -9.3760 C.3       1 SLP1        0.0000
     97 H8X        13.8930   11.2630   -8.8200 H         1 SLP1        0.0000
     98 H8Y        13.8640   10.4460  -10.4210 H         1 SLP1        0.0000
     99 C39        15.7750   10.3460   -9.3950 C.3       1 SLP1        0.0000
    100 H9X        16.1220    9.4460   -9.9510 H         1 SLP1        0.0000
    101 H9Y        16.1500   10.2630   -8.3500 H         1 SLP1        0.0000
    102 C310       16.3860   11.5980  -10.0450 C.3       1 SLP1        0.0000
    103 H10X       16.0450   12.5010   -9.4900 H         1 SLP1        0.0000
    104 H10Y       16.0160   11.6840  -11.0920 H         1 SLP1        0.0000
    105 C311       17.9230   11.5680  -10.0580 C.3       1 SLP1        0.0000
    106 H11X       18.2640   10.6650  -10.6130 H         1 SLP1        0.0000
    107 H11Y       18.2930   11.4820   -9.0120 H         1 SLP1        0.0000
    108 C312       18.5520   12.8130  -10.7050 C.3       1 SLP1        0.0000
    109 H12X       18.2190   13.7200  -10.1530 H         1 SLP1        0.0000
    110 H12Y       18.1890   12.9030  -11.7530 H         1 SLP1        0.0000
    111 C313       20.0880   12.7600  -10.7060 C.3       1 SLP1        0.0000
    112 H13X       20.4180   11.8510  -11.2580 H         1 SLP1        0.0000
    113 H13Y       20.4480   12.6680   -9.6570 H         1 SLP1        0.0000
    114 C314       20.7260   13.9990  -11.3510 C.3       1 SLP1        0.0000
    115 H14X       20.3930   14.9070  -10.7990 H         1 SLP1        0.0000
    116 H14Y       20.3640   14.0900  -12.4000 H         1 SLP1        0.0000
    117 C315       22.2620   13.9580  -11.3580 C.3       1 SLP1        0.0000
    118 H15X       22.6040   13.0560  -11.9130 H         1 SLP1        0.0000
    119 H15Y       22.6340   13.8730  -10.3120 H         1 SLP1        0.0000
    120 C316       22.8700   15.2090  -12.0070 C.3       1 SLP1        0.0000
    121 H16X       22.5240   16.1100  -11.4530 H         1 SLP1        0.0000
    122 H16Y       22.4940   15.2940  -13.0520 H         1 SLP1        0.0000
    123 C317       24.4030   15.2030  -12.0320 C.3       1 SLP1        0.0000
    124 H17X       24.7520   14.3030  -12.5900 H         1 SLP1        0.0000
    125 H17Y       24.7820   15.1210  -10.9870 H         1 SLP1        0.0000
    126 C318       24.9860   16.4590  -12.6840 C.3       1 SLP1        0.0000
    127 H18X       24.6610   17.3660  -12.1290 H         1 SLP1        0.0000
    128 H18Y       24.6320   16.5470  -13.7340 H         1 SLP1        0.0000
    129 H18Z       26.0970   16.4260  -12.6870 H         1 SLP1        0.0000
@<TRIPOS>BOND
     1   76   74 1 
     2   69   68 1 
     3   66   65 1 
     4   67   65 1 
     5   74   75 1 
     6   74   77 1 
     7   74   71 1 
     8   68   65 1 
     9   68   71 1 
    10   68   70 1 
    11   78   77 1 
    12   73   71 1 
    13   80   77 1 
    14   65   63 1 
    15   77   79 1 
    16   71   72 1 
    17   53   51 1 
    18   49   48 1 
    19   60   58 1 
    20  128  126 1 
    21   52   51 1 
    22   63   64 1 
    23   63   61 2 
    24   51   48 1 
    25   51   54 1 
    26   48   50 1 
    27   48   45 1 
    28  122  120 1 
    29   59   58 1 
    30   58   61 1 
    31   58   56 1 
    32   44   42 1 
    33  129  126 1 
    34  126  127 1 
    35  126  123 1 
    36  124  123 1 
    37   61   62 1 
    38  116  114 1 
    39   54   56 2 
    40   54   55 1 
    41  123  120 1 
    42  123  125 1 
    43  120  121 1 
    44  120  117 1 
    45   46   45 1 
    46   45   42 1 
    47   45   47 1 
    48  118  117 1 
    49   56   57 1 
    50   42   43 1 
    51   42   39 1 
    52  110  108 1 
    53  117  114 1 
    54  117  119 1 
    55   38   36 1 
    56  114  115 1 
    57  114  111 1 
    58  112  111 1 
    59  104  102 1 
    60   40   39 1 
    61  111  108 1 
    62  111  113 1 
    63  108  109 1 
    64  108  105 1 
    65   39   36 1 
    66   39   41 1 
    67  106  105 1 
    68   98   96 1 
    69   36   37 1 
    70   36   24 1 
    71  105  102 1 
    72  105  107 1 
    73  102  103 1 
    74  102   99 1 
    75  100   99 1 
    76   92   90 1 
    77   26   24 1 
    78   99   96 1 
    79   99  101 1 
    80   96   97 1 
    81   96   93 1 
    82   24   25 1 
    83   24   22 1 
    84   94   93 1 
    85   86   84 1 
    86   93   90 1 
    87   93   95 1 
    88   90   91 1 
    89   90   87 1 
    90   88   87 1 
    91   35   33 1 
    92   87   84 1 
    93   87   89 1 
    94   84   85 1 
    95   84   81 1 
    96   22   21 1 
    97   22   23 2 
    98   82   81 1 
    99   21   19 1 
   100   81   33 1 
   101   81   83 1 
   102   33   34 1 
   103   33   31 1 
   104   31   30 1 
   105   31   32 2 
   106   30   27 1 
   107   28   27 1 
   108   19   27 1 
   109   19   20 1 
   110   19   16 1 
   111   27   29 1 
   112   18   16 1 
   113   17   16 1 
   114   16   15 1 
   115   15   11 1 
   116   13   11 2 
   117   12   11 1 
   118   11   14 1 
   119    4    1 1 
   120   14    8 1 
   121    3    1 1 
   122    1    2 1 
   123    1    5 1 
   124    9    8 1 
   125    8    5 1 
   126    8   10 1 
   127    5    7 1 
   128    5    6 1 
