@<TRIPOS>MOLECULE
C:\Users\Praveer\PycharmProjects\pdb_to_mol2_converter\data\pdb\slpg.pdb
  131   130     0     0     0
SMALL
GASTEIGER

@<TRIPOS>ATOM
      1 C13         0.0710    0.1220   -0.0670 C.3       1 SLP1        0.0000
      2 H13A       -0.2600    0.3540   -1.1040 H         1 SLP1        0.0000
      3 H13B       -0.3390   -0.8700    0.2200 H         1 SLP1        0.0000
      4 OC3        -0.4230    1.1360    0.8070 O.3       1 SLP1        0.0000
      5 HO3        -0.0040    1.9420    0.4640 H         1 SLP1        0.0000
      6 C12         1.6190    0.0770   -0.0310 C.3       1 SLP1        0.0000
      7 H12A        1.9320   -0.3960    0.9260 H         1 SLP1        0.0000
      8 OC2         2.1040   -0.7370   -1.0950 O.3       1 SLP1        0.0000
      9 HO2         2.0550   -0.1600   -1.8920 H         1 SLP1        0.0000
     10 C11         2.2640    1.4910   -0.0990 C.3       1 SLP1        0.0000
     11 H11A        3.3480    1.4070   -0.3480 H         1 SLP1        0.0000
     12 H11B        2.2130    1.9220    0.9260 H         1 SLP1        0.0000
     13 P           1.9350    2.4440   -2.5150 P.3       1 SLP1        0.0000
     14 O13         1.0690    3.4400   -3.1780 O.2       1 SLP1        0.0000
     15 O14         1.9530    1.0630   -3.0450 O.3       1 SLP1        0.0000
     16 O12         1.5500    2.3710   -0.9770 O.3       1 SLP1        0.0000
     17 O11         3.4220    3.0050   -2.4480 O.3       1 SLP1        0.0000
     18 C1          3.6180    4.2850   -1.8380 C.3       1 SLP1        0.0000
     19 HA          3.1360    4.3380   -0.8330 H         1 SLP1        0.0000
     20 HB          3.1780    5.0850   -2.4810 H         1 SLP1        0.0000
     21 C2          5.1300    4.5880   -1.6730 C.3       1 SLP1        0.0000
     22 HS          5.5500    3.9010   -0.9010 H         1 SLP1        0.0000
     23 O21         5.2920    5.9730   -1.3090 O.3       1 SLP1        0.0000
     24 C21         5.0120    6.2460   -0.0430 C.2       1 SLP1        0.0000
     25 O22         4.7550    5.4320    0.8250 O.2       1 SLP1        0.0000
     26 C22         4.8650    7.7590    0.1260 C.3       1 SLP1        0.0000
     27 H2R         3.8820    7.9330    0.6140 H         1 SLP1        0.0000
     28 H2S         4.8540    8.2450   -0.8700 H         1 SLP1        0.0000
     29 C3          5.9160    4.3200   -2.9880 C.3       1 SLP1        0.0000
     30 HX          5.5320    5.0430   -3.7470 H         1 SLP1        0.0000
     31 HY          5.6760    3.2890   -3.3360 H         1 SLP1        0.0000
     32 O31         7.3450    4.4580   -2.7820 O.3       1 SLP1        0.0000
     33 C31         8.0380    4.4780   -3.9190 C.2       1 SLP1        0.0000
     34 O32         7.5660    4.3930   -5.0340 O.2       1 SLP1        0.0000
     35 C32         9.5350    4.5510   -3.6060 C.3       1 SLP1        0.0000
     36 H2X         9.8000    3.6770   -2.9760 H         1 SLP1        0.0000
     37 H2Y         9.7290    5.4790   -3.0320 H         1 SLP1        0.0000
     38 C23         5.9870    8.3480    1.0070 C.3       1 SLP1        0.0000
     39 H3R         5.9900    7.8510    2.0040 H         1 SLP1        0.0000
     40 H3S         5.7810    9.4300    1.1760 H         1 SLP1        0.0000
     41 C24         7.3710    8.2100    0.3580 C.3       1 SLP1        0.0000
     42 H4R         7.3570    8.6710   -0.6550 H         1 SLP1        0.0000
     43 H4S         7.6080    7.1290    0.2310 H         1 SLP1        0.0000
     44 C25         8.4880    8.8540    1.1890 C.3       1 SLP1        0.0000
     45 H5R         8.4130    8.4780    2.2340 H         1 SLP1        0.0000
     46 H5S         8.3450    9.9570    1.2130 H         1 SLP1        0.0000
     47 C26         9.8800    8.5230    0.6310 C.3       1 SLP1        0.0000
     48 H6R         9.9210    8.8280   -0.4390 H         1 SLP1        0.0000
     49 H6S        10.0230    7.4190    0.6630 H         1 SLP1        0.0000
     50 C27        11.0410    9.2030    1.3780 C.3       1 SLP1        0.0000
     51 H7R        10.9910   10.2980    1.1820 H         1 SLP1        0.0000
     52 H7S        12.0010    8.8320    0.9500 H         1 SLP1        0.0000
     53 C28        11.0610    8.9890    2.9060 C.3       1 SLP1        0.0000
     54 H8R        10.1650    9.4760    3.3490 H         1 SLP1        0.0000
     55 H8S        11.9390    9.5430    3.3080 H         1 SLP1        0.0000
     56 C29        11.0920    7.5300    3.2940 C.2       1 SLP1        0.0000
     57 H9R        10.1420    6.9990    3.1240 H         1 SLP1        0.0000
     58 C210       12.1330    6.8350    3.7940 C.2       1 SLP1        0.0000
     59 H10R       11.9810    5.7690    4.0260 H         1 SLP1        0.0000
     60 C211       13.5230    7.3480    4.0900 C.3       1 SLP1        0.0000
     61 H11R       13.7850    7.0820    5.1370 H         1 SLP1        0.0000
     62 H11S       13.5580    8.4580    4.0510 H         1 SLP1        0.0000
     63 C212       14.5430    6.7420    3.1540 C.2       1 SLP1        0.0000
     64 H12R       14.4180    5.6650    2.9570 H         1 SLP1        0.0000
     65 C213       15.5530    7.3900    2.5440 C.2       1 SLP1        0.0000
     66 H13R       16.2130    6.8250    1.8670 H         1 SLP1        0.0000
     67 C214       15.8950    8.8530    2.6830 C.3       1 SLP1        0.0000
     68 H14R       16.9970    8.9920    2.6300 H         1 SLP1        0.0000
     69 H14S       15.5790    9.2440    3.6770 H         1 SLP1        0.0000
     70 C215       15.2330    9.7260    1.5980 C.3       1 SLP1        0.0000
     71 H15R       15.4900   10.7900    1.8030 H         1 SLP1        0.0000
     72 H15S       14.1270    9.6290    1.6750 H         1 SLP1        0.0000
     73 C216       15.6850    9.3890    0.1670 C.3       1 SLP1        0.0000
     74 H16R       15.3210    8.3720   -0.1040 H         1 SLP1        0.0000
     75 H16S       16.7980    9.3690    0.1410 H         1 SLP1        0.0000
     76 C217       15.1910   10.3910   -0.8900 C.3       1 SLP1        0.0000
     77 H17R       15.6090   10.0910   -1.8790 H         1 SLP1        0.0000
     78 H17S       15.6060   11.3960   -0.6480 H         1 SLP1        0.0000
     79 C218       13.6680   10.4950   -1.0100 C.3       1 SLP1        0.0000
     80 H18R       13.2240   10.8770   -0.0670 H         1 SLP1        0.0000
     81 H18S       13.2260    9.4980   -1.2270 H         1 SLP1        0.0000
     82 H18T       13.3890   11.1890   -1.8320 H         1 SLP1        0.0000
     83 C33        10.3820    4.5430   -4.8980 C.3       1 SLP1        0.0000
     84 H3X        10.1050    5.4180   -5.5300 H         1 SLP1        0.0000
     85 H3Y        10.1570    3.6220   -5.4850 H         1 SLP1        0.0000
     86 C34        11.8900    4.5910   -4.6250 C.3       1 SLP1        0.0000
     87 H4X        12.1810    3.7120   -4.0070 H         1 SLP1        0.0000
     88 H4Y        12.1300    5.5100   -4.0440 H         1 SLP1        0.0000
     89 C35        12.7110    4.5880   -5.9220 C.3       1 SLP1        0.0000
     90 H5X        12.4140    5.4650   -6.5400 H         1 SLP1        0.0000
     91 H5Y        12.4670    3.6700   -6.5030 H         1 SLP1        0.0000
     92 C36        14.2250    4.6380   -5.6730 C.3       1 SLP1        0.0000
     93 H6X        14.5230    3.7580   -5.0620 H         1 SLP1        0.0000
     94 H6Y        14.4680    5.5550   -5.0910 H         1 SLP1        0.0000
     95 C37        15.0330    4.6420   -6.9790 C.3       1 SLP1        0.0000
     96 H7X        14.7270    5.5210   -7.5910 H         1 SLP1        0.0000
     97 H7Y        14.7860    3.7260   -7.5610 H         1 SLP1        0.0000
     98 C38        16.5530    4.6960   -6.7540 C.3       1 SLP1        0.0000
     99 H8X        16.8620    3.8160   -6.1470 H         1 SLP1        0.0000
    100 H8Y        16.8030    5.6130   -6.1740 H         1 SLP1        0.0000
    101 C39        17.3350    4.7020   -8.0770 C.3       1 SLP1        0.0000
    102 H9X        17.0140    5.5810   -8.6790 H         1 SLP1        0.0000
    103 H9Y        17.0740    3.7850   -8.6520 H         1 SLP1        0.0000
    104 C310       18.8600    4.7560   -7.8970 C.3       1 SLP1        0.0000
    105 H10X       19.1900    3.8770   -7.3000 H         1 SLP1        0.0000
    106 H10Y       19.1300    5.6730   -7.3270 H         1 SLP1        0.0000
    107 C311       19.6140    4.7610   -9.2370 C.3       1 SLP1        0.0000
    108 H11X       19.2870    5.6400   -9.8370 H         1 SLP1        0.0000
    109 H11Y       19.3480    3.8440   -9.8090 H         1 SLP1        0.0000
    110 C312       21.1370    4.8150   -9.0560 C.3       1 SLP1        0.0000
    111 H12X       21.4640    3.9350   -8.4580 H         1 SLP1        0.0000
    112 H12Y       21.4040    5.7320   -8.4850 H         1 SLP1        0.0000
    113 C313       21.9030    4.8200  -10.3850 C.3       1 SLP1        0.0000
    114 H13X       21.5880    5.6990  -10.9900 H         1 SLP1        0.0000
    115 H13Y       21.6480    3.9040  -10.9630 H         1 SLP1        0.0000
    116 C314       23.4210    4.8740  -10.1770 C.3       1 SLP1        0.0000
    117 H14X       23.7390    3.9950   -9.5730 H         1 SLP1        0.0000
    118 H14Y       23.6790    5.7910   -9.6000 H         1 SLP1        0.0000
    119 C315       24.1940    4.8800  -11.5010 C.3       1 SLP1        0.0000
    120 H15X       23.8790    5.7610  -12.1050 H         1 SLP1        0.0000
    121 H15Y       23.9390    3.9620  -12.0780 H         1 SLP1        0.0000
    122 C316       25.7110    4.9340  -11.2870 C.3       1 SLP1        0.0000
    123 H16X       26.0260    4.0540  -10.6820 H         1 SLP1        0.0000
    124 H16Y       25.9660    5.8510  -10.7090 H         1 SLP1        0.0000
    125 C317       26.4860    4.9400  -12.6090 C.3       1 SLP1        0.0000
    126 H17X       26.1600    5.8190  -13.2110 H         1 SLP1        0.0000
    127 H17Y       26.2200    4.0230  -13.1840 H         1 SLP1        0.0000
    128 C318       28.0030    4.9930  -12.4210 C.3       1 SLP1        0.0000
    129 H18X       28.3500    4.1100  -11.8430 H         1 SLP1        0.0000
    130 H18Y       28.2900    5.9150  -11.8710 H         1 SLP1        0.0000
    131 H18Z       28.5190    4.9960  -13.4050 H         1 SLP1        0.0000
@<TRIPOS>BOND
     1  131  128 1 
     2  126  125 1 
     3  127  125 1 
     4  125  128 1 
     5  125  122 1 
     6  128  130 1 
     7  128  129 1 
     8  120  119 1 
     9  121  119 1 
    10  119  122 1 
    11  119  116 1 
    12  122  124 1 
    13  122  123 1 
    14  114  113 1 
    15  115  113 1 
    16  113  116 1 
    17  113  110 1 
    18  116  118 1 
    19  116  117 1 
    20  108  107 1 
    21  109  107 1 
    22  107  110 1 
    23  107  104 1 
    24  110  112 1 
    25  110  111 1 
    26  102  101 1 
    27  103  101 1 
    28  101  104 1 
    29  101   98 1 
    30  104  106 1 
    31  104  105 1 
    32   96   95 1 
    33   97   95 1 
    34   95   98 1 
    35   95   92 1 
    36   98  100 1 
    37   98   99 1 
    38   90   89 1 
    39   91   89 1 
    40   89   92 1 
    41   89   86 1 
    42   92   94 1 
    43   92   93 1 
    44   84   83 1 
    45   85   83 1 
    46   34   33 2 
    47   83   86 1 
    48   83   35 1 
    49   86   88 1 
    50   86   87 1 
    51   33   35 1 
    52   33   32 1 
    53   30   29 1 
    54   35   37 1 
    55   35   36 1 
    56   31   29 1 
    57   14   13 2 
    58   15   13 1 
    59   29   32 1 
    60   29   21 1 
    61   13   17 1 
    62   13   16 1 
    63   20   18 1 
    64   17   18 1 
    65    9    8 1 
    66   77   76 1 
    67   18   21 1 
    68   18   19 1 
    69   82   79 1 
    70   21   23 1 
    71   21   22 1 
    72   23   24 1 
    73   81   79 1 
    74    2    1 1 
    75    8    6 1 
    76   79   76 1 
    77   79   80 1 
    78   16   10 1 
    79   76   78 1 
    80   76   73 1 
    81   28   26 1 
    82   42   41 1 
    83   48   47 1 
    84   11   10 1 
    85   74   73 1 
    86   10    6 1 
    87   10   12 1 
    88    1    6 1 
    89    1    3 1 
    90    1    4 1 
    91   24   26 1 
    92   24   25 2 
    93    6    7 1 
    94   26   27 1 
    95   26   38 1 
    96   75   73 1 
    97   73   70 1 
    98   43   41 1 
    99   41   38 1 
   100   41   44 1 
   101    5    4 1 
   102   47   49 1 
   103   47   44 1 
   104   47   50 1 
   105   52   50 1 
   106   38   40 1 
   107   38   39 1 
   108   51   50 1 
   109   44   46 1 
   110   44   45 1 
   111   50   53 1 
   112   70   72 1 
   113   70   71 1 
   114   70   67 1 
   115   66   65 1 
   116   65   67 1 
   117   65   63 2 
   118   68   67 1 
   119   67   69 1 
   120   53   56 1 
   121   53   55 1 
   122   53   54 1 
   123   64   63 1 
   124   57   56 1 
   125   63   60 1 
   126   56   58 2 
   127   58   59 1 
   128   58   60 1 
   129   62   60 1 
   130   60   61 1 
