@<TRIPOS>MOLECULE
C:\Users\Praveer\PycharmProjects\pdb_to_mol2_converter\data\pdb\slps.pdb
  131   130     0     0     0
SMALL
GASTEIGER

@<TRIPOS>ATOM
      1 N           0.0780   -0.1720   -0.1000 N.4       1 SLP1        0.0000
      2 HN1        -0.3590    0.3680    0.6990 H         1 SLP1        0.0000
      3 HN2        -0.1590   -1.1790   -0.0930 H         1 SLP1        0.0000
      4 HN3        -0.2210    0.2350   -1.0090 H         1 SLP1        0.0000
      5 C12         1.5600   -0.0170   -0.0480 C.3       1 SLP1        0.0000
      6 H12A        1.9260   -0.5530    0.8130 H         1 SLP1        0.0000
      7 C13         2.2090   -0.6580   -1.2920 C.2       1 SLP1        0.0000
      8 O13A        1.4560   -1.2430   -2.1230 O.co2     1 SLP1        0.0000
      9 O13B        3.4580   -0.7790   -1.2830 O.co2     1 SLP1        0.0000
     10 C11         1.9420    1.4950    0.0660 C.3       1 SLP1        0.0000
     11 H11A        1.5450    2.0580   -0.8110 H         1 SLP1        0.0000
     12 H11B        3.0520    1.5620   -0.0060 H         1 SLP1        0.0000
     13 P           0.1080    2.6910    1.5190 P.3       1 SLP1        0.0000
     14 O13        -0.2190    3.5550    0.3710 O.2       1 SLP1        0.0000
     15 O14        -0.7920    1.5280    1.7330 O.3       1 SLP1        0.0000
     16 O12         1.5490    2.0800    1.3170 O.3       1 SLP1        0.0000
     17 O11         0.1980    3.5570    2.8500 O.3       1 SLP1        0.0000
     18 C1         -1.0250    4.2300    3.1870 C.3       1 SLP1        0.0000
     19 HA         -1.8480    3.4900    3.3300 H         1 SLP1        0.0000
     20 HB         -1.3250    4.9430    2.3810 H         1 SLP1        0.0000
     21 C2         -0.8910    5.0670    4.4850 C.3       1 SLP1        0.0000
     22 HS         -0.6420    4.3880    5.3350 H         1 SLP1        0.0000
     23 O21        -2.1370    5.7600    4.7010 O.3       1 SLP1        0.0000
     24 C21        -3.1170    4.9830    5.1470 C.2       1 SLP1        0.0000
     25 O22        -2.9950    3.8510    5.5730 O.2       1 SLP1        0.0000
     26 C22        -4.4560    5.7070    5.0040 C.3       1 SLP1        0.0000
     27 H2R        -5.1350    5.0200    4.4550 H         1 SLP1        0.0000
     28 H2S        -4.3210    6.6260    4.4000 H         1 SLP1        0.0000
     29 C3          0.2600    6.1050    4.3770 C.3       1 SLP1        0.0000
     30 HX         -0.0200    6.8200    3.5680 H         1 SLP1        0.0000
     31 HY          1.1850    5.5690    4.0640 H         1 SLP1        0.0000
     32 O31         0.4710    6.7740    5.6440 O.3       1 SLP1        0.0000
     33 C31         1.2580    7.8400    5.5580 C.2       1 SLP1        0.0000
     34 O32         1.7750    8.2600    4.5370 O.2       1 SLP1        0.0000
     35 C32         1.4250    8.4590    6.9450 C.3       1 SLP1        0.0000
     36 H2X         1.8500    7.6870    7.6180 H         1 SLP1        0.0000
     37 H2Y         0.4230    8.7500    7.3200 H         1 SLP1        0.0000
     38 C23        -5.0680    6.0400    6.3800 C.3       1 SLP1        0.0000
     39 H3R        -5.2000    5.1070    6.9740 H         1 SLP1        0.0000
     40 H3S        -6.0780    6.4820    6.2250 H         1 SLP1        0.0000
     41 C24        -4.2110    7.0370    7.1710 C.3       1 SLP1        0.0000
     42 H4R        -4.0440    7.9520    6.5600 H         1 SLP1        0.0000
     43 H4S        -3.2140    6.5830    7.3750 H         1 SLP1        0.0000
     44 C25        -4.8400    7.4350    8.5100 C.3       1 SLP1        0.0000
     45 H5R        -5.0980    6.5080    9.0690 H         1 SLP1        0.0000
     46 H5S        -5.7830    7.9960    8.3280 H         1 SLP1        0.0000
     47 C26        -3.8860    8.2890    9.3560 C.3       1 SLP1        0.0000
     48 H6R        -3.5630    9.1700    8.7560 H         1 SLP1        0.0000
     49 H6S        -2.9740    7.6900    9.5790 H         1 SLP1        0.0000
     50 C27        -4.4940    8.7940   10.6760 C.3       1 SLP1        0.0000
     51 H7R        -5.2840    9.5410   10.4330 H         1 SLP1        0.0000
     52 H7S        -3.7010    9.3250   11.2510 H         1 SLP1        0.0000
     53 C28        -5.1220    7.7080   11.5740 C.3       1 SLP1        0.0000
     54 H8R        -5.9970    7.2680   11.0470 H         1 SLP1        0.0000
     55 H8S        -5.5330    8.2170   12.4730 H         1 SLP1        0.0000
     56 C29        -4.1460    6.6160   11.9420 C.2       1 SLP1        0.0000
     57 H9R        -3.9060    5.9290   11.1140 H         1 SLP1        0.0000
     58 C210       -3.5530    6.4140   13.1340 C.2       1 SLP1        0.0000
     59 H10R       -2.8610    5.5620   13.2310 H         1 SLP1        0.0000
     60 C211       -3.7220    7.2310   14.3940 C.3       1 SLP1        0.0000
     61 H11R       -3.9710    6.5450   15.2330 H         1 SLP1        0.0000
     62 H11S       -4.5890    7.9200   14.3100 H         1 SLP1        0.0000
     63 C212       -2.4590    7.9890   14.7310 C.2       1 SLP1        0.0000
     64 H12R       -1.5240    7.4200   14.6130 H         1 SLP1        0.0000
     65 C213       -2.3790    9.2700   15.1420 C.2       1 SLP1        0.0000
     66 H13R       -1.3850    9.7050   15.3280 H         1 SLP1        0.0000
     67 C214       -3.5340   10.2130   15.3760 C.3       1 SLP1        0.0000
     68 H14R       -3.3090   10.8820   16.2360 H         1 SLP1        0.0000
     69 H14S       -4.4570    9.6540   15.6500 H         1 SLP1        0.0000
     70 C215       -3.8530   11.0810   14.1420 C.3       1 SLP1        0.0000
     71 H15R       -4.7420   11.7090   14.3800 H         1 SLP1        0.0000
     72 H15S       -4.1310   10.4180   13.2930 H         1 SLP1        0.0000
     73 C216       -2.7030   12.0110   13.7200 C.3       1 SLP1        0.0000
     74 H16R       -1.8490   11.3980   13.3560 H         1 SLP1        0.0000
     75 H16S       -2.3570   12.5770   14.6140 H         1 SLP1        0.0000
     76 C217       -3.0910   13.0190   12.6250 C.3       1 SLP1        0.0000
     77 H17R       -2.2100   13.6720   12.4250 H         1 SLP1        0.0000
     78 H17S       -3.9050   13.6720   13.0140 H         1 SLP1        0.0000
     79 C218       -3.5440   12.3870   11.3050 C.3       1 SLP1        0.0000
     80 H18R       -4.4760   11.8000   11.4500 H         1 SLP1        0.0000
     81 H18S       -2.7590   11.7070   10.9100 H         1 SLP1        0.0000
     82 H18T       -3.7440   13.1730   10.5450 H         1 SLP1        0.0000
     83 C33         2.3530    9.6910    6.9090 C.3       1 SLP1        0.0000
     84 H3X         1.9150   10.4710    6.2440 H         1 SLP1        0.0000
     85 H3Y         3.3420    9.4030    6.4830 H         1 SLP1        0.0000
     86 C34         2.5840   10.3010    8.2950 C.3       1 SLP1        0.0000
     87 H4X         3.0420    9.5380    8.9630 H         1 SLP1        0.0000
     88 H4Y         1.6070   10.6010    8.7360 H         1 SLP1        0.0000
     89 C35         3.5030   11.5260    8.2260 C.3       1 SLP1        0.0000
     90 H5X         3.0420   12.2870    7.5560 H         1 SLP1        0.0000
     91 H5Y         4.4760   11.2260    7.7750 H         1 SLP1        0.0000
     92 C36         3.7580   12.1540    9.6000 C.3       1 SLP1        0.0000
     93 H6X         4.2270   11.3960   10.2660 H         1 SLP1        0.0000
     94 H6Y         2.7840   12.4490   10.0520 H         1 SLP1        0.0000
     95 C37         4.6690   13.3860    9.5110 C.3       1 SLP1        0.0000
     96 H7X         4.1970   14.1340    8.8350 H         1 SLP1        0.0000
     97 H7Y         5.6380   13.0840    9.0540 H         1 SLP1        0.0000
     98 C38         4.9360   14.0380   10.8780 C.3       1 SLP1        0.0000
     99 H8X         5.4100   13.2870   11.5490 H         1 SLP1        0.0000
    100 H8Y         3.9640   14.3350   11.3310 H         1 SLP1        0.0000
    101 C39         5.8470   15.2730   10.7690 C.3       1 SLP1        0.0000
    102 H9X         5.3670   16.0120   10.0890 H         1 SLP1        0.0000
    103 H9Y         6.8120   14.9650   10.3080 H         1 SLP1        0.0000
    104 C310        6.1420   15.9610   12.1130 C.3       1 SLP1        0.0000
    105 H10X        6.6300   15.2350   12.8000 H         1 SLP1        0.0000
    106 H10Y        5.1850   16.2810   12.5820 H         1 SLP1        0.0000
    107 C311        7.0550   17.1890   11.9540 C.3       1 SLP1        0.0000
    108 H11X        6.5690   17.9180   11.2680 H         1 SLP1        0.0000
    109 H11Y        8.0140   16.8720   11.4860 H         1 SLP1        0.0000
    110 C312        7.3580   17.8860   13.2870 C.3       1 SLP1        0.0000
    111 H12X        7.8470   17.1610   13.9750 H         1 SLP1        0.0000
    112 H12Y        6.4020   18.2070   13.7570 H         1 SLP1        0.0000
    113 C313        8.2680   19.1110   13.1370 C.3       1 SLP1        0.0000
    114 H13X        7.7880   19.8510   12.4570 H         1 SLP1        0.0000
    115 H13Y        9.2330   18.8050   12.6760 H         1 SLP1        0.0000
    116 C314        8.5470   19.7780   14.4860 C.3       1 SLP1        0.0000
    117 H14X        9.0270   19.0410   15.1680 H         1 SLP1        0.0000
    118 H14Y        7.5830   20.0860   14.9500 H         1 SLP1        0.0000
    119 C315        9.4540   21.0030   14.3530 C.3       1 SLP1        0.0000
    120 H15X        8.9720   21.7420   13.6730 H         1 SLP1        0.0000
    121 H15Y       10.4190   20.6940   13.8910 H         1 SLP1        0.0000
    122 C316        9.7180   21.6530   15.7160 C.3       1 SLP1        0.0000
    123 H16X       10.1940   20.9010   16.3870 H         1 SLP1        0.0000
    124 H16Y        8.7440   21.9510   16.1680 H         1 SLP1        0.0000
    125 C317       10.6250   22.8830   15.6080 C.3       1 SLP1        0.0000
    126 H17X       10.1400   23.6210   14.9280 H         1 SLP1        0.0000
    127 H17Y       11.5910   22.5710   15.1470 H         1 SLP1        0.0000
    128 C318       10.9160   23.5630   16.9470 C.3       1 SLP1        0.0000
    129 H18X       11.4210   22.8590   17.6400 H         1 SLP1        0.0000
    130 H18Y        9.9730   23.9070   17.4220 H         1 SLP1        0.0000
    131 H18Z       11.5760   24.4460   16.8020 H         1 SLP1        0.0000
@<TRIPOS>BOND
     1    8    7 ar
     2    7    9 ar
     3    7    5 1 
     4    4    1 1 
     5   11   10 1 
     6    1    3 1 
     7    1    5 1 
     8    1    2 1 
     9    5   10 1 
    10    5    6 1 
    11   12   10 1 
    12   10   16 1 
    13   14   13 2 
    14   16   13 1 
    15   13   15 1 
    16   13   17 1 
    17   20   18 1 
    18   17   18 1 
    19   18   19 1 
    20   18   21 1 
    21   30   29 1 
    22   31   29 1 
    23   29   21 1 
    24   29   32 1 
    25   28   26 1 
    26   27   26 1 
    27   21   23 1 
    28   21   22 1 
    29   34   33 2 
    30   23   24 1 
    31   26   24 1 
    32   26   38 1 
    33   24   25 2 
    34   33   32 1 
    35   33   35 1 
    36   40   38 1 
    37   84   83 1 
    38   38   39 1 
    39   38   41 1 
    40   85   83 1 
    41   42   41 1 
    42   83   35 1 
    43   83   86 1 
    44   35   37 1 
    45   35   36 1 
    46   41   43 1 
    47   41   44 1 
    48   90   89 1 
    49   91   89 1 
    50   89   86 1 
    51   89   92 1 
    52   86   88 1 
    53   86   87 1 
    54   46   44 1 
    55   44   45 1 
    56   44   47 1 
    57   48   47 1 
    58   96   95 1 
    59   97   95 1 
    60   47   49 1 
    61   47   50 1 
    62   95   92 1 
    63   95   98 1 
    64   92   94 1 
    65   92   93 1 
    66  102  101 1 
    67  103  101 1 
    68   51   50 1 
    69   82   79 1 
    70   50   52 1 
    71   50   53 1 
    72  101   98 1 
    73  101  104 1 
    74   98  100 1 
    75   98   99 1 
    76   81   79 1 
    77   54   53 1 
    78   57   56 1 
    79  108  107 1 
    80   79   80 1 
    81   79   76 1 
    82  109  107 1 
    83   53   56 1 
    84   53   55 1 
    85   56   58 2 
    86  107  104 1 
    87  107  110 1 
    88  104  106 1 
    89  104  105 1 
    90   77   76 1 
    91  114  113 1 
    92   76   78 1 
    93   76   73 1 
    94  115  113 1 
    95   58   59 1 
    96   58   60 1 
    97  113  110 1 
    98  113  116 1 
    99  110  112 1 
   100  110  111 1 
   101   72   70 1 
   102   74   73 1 
   103  120  119 1 
   104   73   70 1 
   105   73   75 1 
   106  121  119 1 
   107   70   71 1 
   108   70   67 1 
   109   62   60 1 
   110  119  116 1 
   111  119  122 1 
   112   60   63 1 
   113   60   61 1 
   114  116  118 1 
   115  116  117 1 
   116   64   63 1 
   117   63   65 2 
   118  126  125 1 
   119   65   66 1 
   120   65   67 1 
   121  127  125 1 
   122   67   69 1 
   123   67   68 1 
   124  125  122 1 
   125  125  128 1 
   126  122  124 1 
   127  122  123 1 
   128  131  128 1 
   129  128  130 1 
   130  128  129 1 
