@<TRIPOS>MOLECULE
C:\Users\Praveer\PycharmProjects\pdb_to_mol2_converter\data\pdb\sopa.pdb
  122   121     0     0     0
SMALL
GASTEIGER

@<TRIPOS>ATOM
      1 P           1.6180   -0.0020   -0.0500 P.3       1 SOP1        0.0000
      2 O13         2.2590   -0.7750    1.0240 O.3       1 SOP1        0.0000
      3 O14         1.9950   -0.2610   -1.4490 O.2       1 SOP1        0.0000
      4 O12         2.1070    1.4670    0.2050 O.3       1 SOP1        0.0000
      5 H12         3.0640    1.4520    0.1440 H         1 SOP1        0.0000
      6 O11         0.0510    0.0720    0.1310 O.3       1 SOP1        0.0000
      7 C1         -0.7610    0.8190   -0.7800 C.3       1 SOP1        0.0000
      8 HA         -1.3500    0.1160   -1.4080 H         1 SOP1        0.0000
      9 HB         -0.1590    1.4620   -1.4690 H         1 SOP1        0.0000
     10 C2         -1.7290    1.7540   -0.0060 C.3       1 SOP1        0.0000
     11 HS         -2.5340    1.1290    0.4490 H         1 SOP1        0.0000
     12 O21        -2.2610    2.7470   -0.9030 O.3       1 SOP1        0.0000
     13 C21        -3.1730    2.3090   -1.7480 C.2       1 SOP1        0.0000
     14 O22        -3.6920    1.2080   -1.7360 O.2       1 SOP1        0.0000
     15 C22        -3.5250    3.3930   -2.7810 C.3       1 SOP1        0.0000
     16 H2R        -4.5430    3.7640   -2.5510 H         1 SOP1        0.0000
     17 H2S        -3.5620    2.8710   -3.7620 H         1 SOP1        0.0000
     18 C3         -1.0160    2.4880    1.1650 C.3       1 SOP1        0.0000
     19 HX         -0.3000    3.2140    0.7110 H         1 SOP1        0.0000
     20 HY         -0.4290    1.7420    1.7470 H         1 SOP1        0.0000
     21 O31        -1.9790    3.1310    2.0340 O.3       1 SOP1        0.0000
     22 C31        -1.4270    3.9640    2.9080 C.2       1 SOP1        0.0000
     23 O32        -0.2480    4.2550    2.9700 O.2       1 SOP1        0.0000
     24 C32        -2.4960    4.4820    3.8730 C.3       1 SOP1        0.0000
     25 H2X        -2.2610    4.0610    4.8730 H         1 SOP1        0.0000
     26 H2Y        -3.4910    4.1100    3.5580 H         1 SOP1        0.0000
     27 C23        -2.5290    4.5780   -2.8860 C.3       1 SOP1        0.0000
     28 H3R        -2.7090    5.0920   -3.8580 H         1 SOP1        0.0000
     29 H3S        -1.4840    4.1960   -2.9020 H         1 SOP1        0.0000
     30 C24        -2.7000    5.6260   -1.7730 C.3       1 SOP1        0.0000
     31 H4R        -2.4380    5.1660   -0.7940 H         1 SOP1        0.0000
     32 H4S        -3.7690    5.9320   -1.7240 H         1 SOP1        0.0000
     33 C25        -1.8380    6.8850   -1.9650 C.3       1 SOP1        0.0000
     34 H5R        -2.0130    7.5640   -1.1000 H         1 SOP1        0.0000
     35 H5S        -2.1640    7.4200   -2.8850 H         1 SOP1        0.0000
     36 C26        -0.3320    6.5950   -2.0640 C.3       1 SOP1        0.0000
     37 H6R        -0.1310    6.0220   -2.9950 H         1 SOP1        0.0000
     38 H6S        -0.0260    5.9550   -1.2050 H         1 SOP1        0.0000
     39 C27         0.5180    7.8770   -2.0560 C.3       1 SOP1        0.0000
     40 H7R         0.3430    8.3980   -1.0870 H         1 SOP1        0.0000
     41 H7S         0.1720    8.5600   -2.8640 H         1 SOP1        0.0000
     42 C28         2.0320    7.6180   -2.2020 C.3       1 SOP1        0.0000
     43 H8R         2.3410    6.8930   -1.4150 H         1 SOP1        0.0000
     44 H8S         2.5670    8.5720   -1.9970 H         1 SOP1        0.0000
     45 C29         2.4030    7.1050   -3.5700 C.2       1 SOP1        0.0000
     46 H91         1.5640    6.9750   -4.2710 H         1 SOP1        0.0000
     47 C210        3.6480    6.8070   -3.9760 C.2       1 SOP1        0.0000
     48 H101        3.8030    6.4320   -5.0000 H         1 SOP1        0.0000
     49 C211        4.8940    6.9290   -3.1350 C.3       1 SOP1        0.0000
     50 H11R        4.8130    6.2910   -2.2250 H         1 SOP1        0.0000
     51 H11S        5.0330    7.9790   -2.7920 H         1 SOP1        0.0000
     52 C212        6.1430    6.4990   -3.9260 C.3       1 SOP1        0.0000
     53 H12R        6.2450    7.1340   -4.8350 H         1 SOP1        0.0000
     54 H12S        6.0250    5.4420   -4.2590 H         1 SOP1        0.0000
     55 C213        7.4430    6.6060   -3.1130 C.3       1 SOP1        0.0000
     56 H13R        7.3600    5.9690   -2.2050 H         1 SOP1        0.0000
     57 H13S        7.5820    7.6580   -2.7790 H         1 SOP1        0.0000
     58 C214        8.6670    6.1670   -3.9290 C.3       1 SOP1        0.0000
     59 H14R        8.7420    6.8030   -4.8400 H         1 SOP1        0.0000
     60 H14S        8.5200    5.1150   -4.2640 H         1 SOP1        0.0000
     61 C215        9.9840    6.2600   -3.1470 C.3       1 SOP1        0.0000
     62 H15R        9.9160    5.6220   -2.2380 H         1 SOP1        0.0000
     63 H15S       10.1390    7.3100   -2.8130 H         1 SOP1        0.0000
     64 C216       11.1900    5.8150   -3.9870 C.3       1 SOP1        0.0000
     65 H16R       11.2540    6.4520   -4.8970 H         1 SOP1        0.0000
     66 H16S       11.0320    4.7650   -4.3220 H         1 SOP1        0.0000
     67 C217       12.5180    5.9000   -3.2230 C.3       1 SOP1        0.0000
     68 H17R       12.4490    5.2640   -2.3110 H         1 SOP1        0.0000
     69 H17S       12.6710    6.9510   -2.8870 H         1 SOP1        0.0000
     70 C218       13.7230    5.4570   -4.0570 C.3       1 SOP1        0.0000
     71 H18R       13.8260    6.0940   -4.9610 H         1 SOP1        0.0000
     72 H18S       13.6030    4.4020   -4.3840 H         1 SOP1        0.0000
     73 H18T       14.6590    5.5370   -3.4630 H         1 SOP1        0.0000
     74 C33        -2.4930    6.0250    3.9470 C.3       1 SOP1        0.0000
     75 H3X        -2.7800    6.4440    2.9550 H         1 SOP1        0.0000
     76 H3Y        -1.4630    6.3850    4.1770 H         1 SOP1        0.0000
     77 C34        -3.4460    6.5790    5.0160 C.3       1 SOP1        0.0000
     78 H4X        -3.1270    6.2140    6.0180 H         1 SOP1        0.0000
     79 H4Y        -4.4750    6.1990    4.8300 H         1 SOP1        0.0000
     80 C35        -3.4640    8.1140    5.0180 C.3       1 SOP1        0.0000
     81 H5X        -3.7760    8.4670    4.0090 H         1 SOP1        0.0000
     82 H5Y        -2.4310    8.4880    5.2000 H         1 SOP1        0.0000
     83 C36        -4.4070    8.7200    6.0690 C.3       1 SOP1        0.0000
     84 H6X        -4.0860    8.3930    7.0830 H         1 SOP1        0.0000
     85 H6Y        -5.4380    8.3370    5.8990 H         1 SOP1        0.0000
     86 C37        -4.4230   10.2550    6.0110 C.3       1 SOP1        0.0000
     87 H7X        -4.7360   10.5740    4.9910 H         1 SOP1        0.0000
     88 H7Y        -3.3910   10.6340    6.1800 H         1 SOP1        0.0000
     89 C38        -5.3650   10.8940    7.0410 C.3       1 SOP1        0.0000
     90 H8X        -5.0520   10.5860    8.0640 H         1 SOP1        0.0000
     91 H8Y        -6.3990   10.5180    6.8750 H         1 SOP1        0.0000
     92 C39        -5.3680   12.4280    6.9570 C.3       1 SOP1        0.0000
     93 H9X        -5.6800   12.7350    5.9340 H         1 SOP1        0.0000
     94 H9Y        -4.3340   12.8040    7.1220 H         1 SOP1        0.0000
     95 C310       -6.3080   13.0770    7.9830 C.3       1 SOP1        0.0000
     96 H10X       -5.9960   12.7700    9.0070 H         1 SOP1        0.0000
     97 H10Y       -7.3430   12.7020    7.8180 H         1 SOP1        0.0000
     98 C311       -6.3130   14.6100    7.9000 C.3       1 SOP1        0.0000
     99 H11X       -6.6260   14.9200    6.8780 H         1 SOP1        0.0000
    100 H11Y       -5.2790   14.9880    8.0670 H         1 SOP1        0.0000
    101 C312       -7.2530   15.2530    8.9300 C.3       1 SOP1        0.0000
    102 H12X       -6.9410   14.9430    9.9520 H         1 SOP1        0.0000
    103 H12Y       -8.2870   14.8750    8.7640 H         1 SOP1        0.0000
    104 C313       -7.2620   16.7860    8.8520 C.3       1 SOP1        0.0000
    105 H13X       -7.5740   17.0960    7.8290 H         1 SOP1        0.0000
    106 H13Y       -6.2280   17.1640    9.0170 H         1 SOP1        0.0000
    107 C314       -8.2030   17.4280    9.8820 C.3       1 SOP1        0.0000
    108 H14X       -7.8890   17.1170   10.9030 H         1 SOP1        0.0000
    109 H14Y       -9.2360   17.0490    9.7150 H         1 SOP1        0.0000
    110 C315       -8.2120   18.9620    9.8050 C.3       1 SOP1        0.0000
    111 H15X       -8.5280   19.2760    8.7850 H         1 SOP1        0.0000
    112 H15Y       -7.1800   19.3440    9.9730 H         1 SOP1        0.0000
    113 C316       -9.1520   19.6060   10.8340 C.3       1 SOP1        0.0000
    114 H16X       -8.8430   19.2950   11.8560 H         1 SOP1        0.0000
    115 H16Y      -10.1850   19.2280   10.6730 H         1 SOP1        0.0000
    116 C317       -9.1560   21.1380   10.7520 C.3       1 SOP1        0.0000
    117 H17X       -9.4590   21.4430    9.7250 H         1 SOP1        0.0000
    118 H17Y       -8.1180   21.5100   10.9070 H         1 SOP1        0.0000
    119 C318      -10.0880   21.7990   11.7710 C.3       1 SOP1        0.0000
    120 H18X       -9.7850   21.5350   12.8080 H         1 SOP1        0.0000
    121 H18Y      -11.1370   21.4670   11.6150 H         1 SOP1        0.0000
    122 H18Z      -10.0530   22.9050   11.6690 H         1 SOP1        0.0000
@<TRIPOS>BOND
     1   48   47 1 
     2   71   70 1 
     3   65   64 1 
     4   59   58 1 
     5   53   52 1 
     6   72   70 1 
     7   66   64 1 
     8   46   45 1 
     9   60   58 1 
    10   54   52 1 
    11   70   73 1 
    12   70   67 1 
    13   64   67 1 
    14   64   61 1 
    15   47   45 2 
    16   47   49 1 
    17   58   61 1 
    18   58   55 1 
    19   52   49 1 
    20   52   55 1 
    21   28   27 1 
    22   17   15 1 
    23   45   42 1 
    24   67   69 1 
    25   67   68 1 
    26   61   63 1 
    27   61   62 1 
    28   49   51 1 
    29   49   50 1 
    30   55   57 1 
    31   55   56 1 
    32   37   36 1 
    33   29   27 1 
    34   27   15 1 
    35   27   30 1 
    36   35   33 1 
    37   41   39 1 
    38   15   16 1 
    39   15   13 1 
    40   42   39 1 
    41   42   44 1 
    42   42   43 1 
    43   36   39 1 
    44   36   33 1 
    45   36   38 1 
    46   39   40 1 
    47   33   30 1 
    48   33   34 1 
    49   30   32 1 
    50   30   31 1 
    51   13   14 2 
    52   13   12 1 
    53    9    7 1 
    54    3    1 2 
    55    8    7 1 
    56   12   10 1 
    57    7   10 1 
    58    7    6 1 
    59    1    6 1 
    60    1    4 1 
    61    1    2 1 
    62   10   11 1 
    63   10   18 1 
    64    5    4 1 
    65   19   18 1 
    66   18   20 1 
    67   18   21 1 
    68   21   22 1 
    69   22   23 2 
    70   22   24 1 
    71   75   74 1 
    72   26   24 1 
    73   24   74 1 
    74   24   25 1 
    75   74   76 1 
    76   74   77 1 
    77   81   80 1 
    78   79   77 1 
    79   87   86 1 
    80   77   80 1 
    81   77   78 1 
    82   80   82 1 
    83   80   83 1 
    84   85   83 1 
    85   93   92 1 
    86   86   83 1 
    87   86   88 1 
    88   86   89 1 
    89   83   84 1 
    90   91   89 1 
    91   99   98 1 
    92   92   89 1 
    93   92   94 1 
    94   92   95 1 
    95   89   90 1 
    96   97   95 1 
    97  105  104 1 
    98   98   95 1 
    99   98  100 1 
   100   98  101 1 
   101   95   96 1 
   102  103  101 1 
   103  111  110 1 
   104  104  101 1 
   105  104  106 1 
   106  104  107 1 
   107  101  102 1 
   108  109  107 1 
   109  117  116 1 
   110  110  107 1 
   111  110  112 1 
   112  110  113 1 
   113  107  108 1 
   114  115  113 1 
   115  116  113 1 
   116  116  118 1 
   117  116  119 1 
   118  113  114 1 
   119  121  119 1 
   120  122  119 1 
   121  119  120 1 
