@<TRIPOS>MOLECULE
C:\Users\Praveer\PycharmProjects\pdb_to_mol2_converter\data\pdb\sopc.pdb
  140   139     0     0     0
SMALL
GASTEIGER

@<TRIPOS>ATOM
      1 N           1.5230    0.0410    0.0360 N.4       1 SOP1        0.0000
      2 C12         2.0140    1.4870    0.0250 C.3       1 SOP1        0.0000
      3 H12A        3.0530    1.5060    0.3260 H         1 SOP1        0.0000
      4 H12B        1.4480    2.0430    0.7640 H         1 SOP1        0.0000
      5 C13         0.0210    0.0210    0.0410 C.3       1 SOP1        0.0000
      6 H13A       -0.3620    0.5730   -0.8250 H         1 SOP1        0.0000
      7 H13B       -0.3940    0.5050    0.9120 H         1 SOP1        0.0000
      8 H13C       -0.3750   -0.9800   -0.0470 H         1 SOP1        0.0000
      9 C14         1.9990   -0.6690   -1.1990 C.3       1 SOP1        0.0000
     10 H14A        3.0750   -0.6970   -1.2640 H         1 SOP1        0.0000
     11 H14B        1.6490   -0.1330   -2.0900 H         1 SOP1        0.0000
     12 H14C        1.5990   -1.6690   -1.2690 H         1 SOP1        0.0000
     13 C15         2.0160   -0.6880    1.2490 C.3       1 SOP1        0.0000
     14 H15A        1.6700   -0.2080    2.1550 H         1 SOP1        0.0000
     15 H15B        3.0970   -0.7300    1.2640 H         1 SOP1        0.0000
     16 H15C        1.6430   -1.7060    1.2480 H         1 SOP1        0.0000
     17 C11         1.9170    2.3060   -1.2920 C.3       1 SOP1        0.0000
     18 H11A        2.5990    1.8760   -2.0620 H         1 SOP1        0.0000
     19 H11B        2.3030    3.3290   -1.0830 H         1 SOP1        0.0000
     20 P           0.0030    1.7100   -3.0300 P.3       1 SOP1        0.0000
     21 O13        -1.1930    0.9650   -2.5960 O.3       1 SOP1        0.0000
     22 O14         1.0990    0.9280   -3.6430 O.2       1 SOP1        0.0000
     23 O12         0.5710    2.4320   -1.7360 O.3       1 SOP1        0.0000
     24 O11        -0.3950    2.9280   -3.9560 O.3       1 SOP1        0.0000
     25 C1          0.4850    4.0310   -4.1780 C.3       1 SOP1        0.0000
     26 HA          0.7370    4.0790   -5.2600 H         1 SOP1        0.0000
     27 HB          1.4480    3.9400   -3.6210 H         1 SOP1        0.0000
     28 C2         -0.1800    5.3690   -3.7540 C.3       1 SOP1        0.0000
     29 HS         -0.9790    5.6140   -4.4930 H         1 SOP1        0.0000
     30 O21         0.8280    6.3960   -3.6880 O.3       1 SOP1        0.0000
     31 C21         1.2150    6.8680   -4.8600 C.2       1 SOP1        0.0000
     32 O22         0.7180    6.5980   -5.9370 O.2       1 SOP1        0.0000
     33 C22         2.4120    7.8190   -4.7010 C.3       1 SOP1        0.0000
     34 H2R         2.0570    8.8490   -4.9000 H         1 SOP1        0.0000
     35 H2S         3.1270    7.5410   -5.5050 H         1 SOP1        0.0000
     36 C3         -0.8730    5.2710   -2.3670 C.3       1 SOP1        0.0000
     37 HX         -0.0690    5.1190   -1.6080 H         1 SOP1        0.0000
     38 HY         -1.5330    4.3750   -2.3630 H         1 SOP1        0.0000
     39 O31        -1.6670    6.4510   -2.1050 O.3       1 SOP1        0.0000
     40 C31        -2.0200    6.5920   -0.8320 C.2       1 SOP1        0.0000
     41 O32        -1.6780    5.8690    0.0840 O.2       1 SOP1        0.0000
     42 C32        -2.9720    7.7840   -0.6950 C.3       1 SOP1        0.0000
     43 H2X        -3.9800    7.3730   -0.4800 H         1 SOP1        0.0000
     44 H2Y        -3.0140    8.3360   -1.6560 H         1 SOP1        0.0000
     45 C23         3.1440    7.7580   -3.3360 C.3       1 SOP1        0.0000
     46 H3R         4.1580    8.2000   -3.4700 H         1 SOP1        0.0000
     47 H3S         3.2850    6.7000   -3.0220 H         1 SOP1        0.0000
     48 C24         2.4350    8.5610   -2.2340 C.3       1 SOP1        0.0000
     49 H4R         1.4480    8.0930   -2.0140 H         1 SOP1        0.0000
     50 H4S         2.2420    9.5910   -2.6080 H         1 SOP1        0.0000
     51 C25         3.2360    8.6580   -0.9260 C.3       1 SOP1        0.0000
     52 H5R         2.6490    9.2620   -0.1980 H         1 SOP1        0.0000
     53 H5S         4.1910    9.1950   -1.1170 H         1 SOP1        0.0000
     54 C26         3.5460    7.2930   -0.2950 C.3       1 SOP1        0.0000
     55 H6R         4.2380    6.7350   -0.9620 H         1 SOP1        0.0000
     56 H6S         2.6040    6.7040   -0.2190 H         1 SOP1        0.0000
     57 C27         4.1680    7.4200    1.1050 C.3       1 SOP1        0.0000
     58 H7R         3.4190    7.9060    1.7710 H         1 SOP1        0.0000
     59 H7S         5.0530    8.0940    1.0610 H         1 SOP1        0.0000
     60 C28         4.5710    6.0680    1.7260 C.3       1 SOP1        0.0000
     61 H8R         3.6850    5.3940    1.7060 H         1 SOP1        0.0000
     62 H8S         4.8270    6.2450    2.7960 H         1 SOP1        0.0000
     63 C29         5.7420    5.4360    1.0170 C.2       1 SOP1        0.0000
     64 H91         6.1410    6.0020    0.1600 H         1 SOP1        0.0000
     65 C210        6.3200    4.2750    1.3640 C.2       1 SOP1        0.0000
     66 H101        7.1820    3.9090    0.7830 H         1 SOP1        0.0000
     67 C211        5.8910    3.4050    2.5180 C.3       1 SOP1        0.0000
     68 H11R        4.8260    3.1040    2.4080 H         1 SOP1        0.0000
     69 H11S        5.9780    3.9670    3.4770 H         1 SOP1        0.0000
     70 C212        6.7600    2.1390    2.6190 C.3       1 SOP1        0.0000
     71 H12R        7.8260    2.4330    2.7580 H         1 SOP1        0.0000
     72 H12S        6.6900    1.5560    1.6730 H         1 SOP1        0.0000
     73 C213        6.3600    1.2260    3.7880 C.3       1 SOP1        0.0000
     74 H13R        5.2990    0.9140    3.6690 H         1 SOP1        0.0000
     75 H13S        6.4410    1.7960    4.7410 H         1 SOP1        0.0000
     76 C214        7.2520   -0.0210    3.8720 C.3       1 SOP1        0.0000
     77 H14R        8.3100    0.3020    4.0020 H         1 SOP1        0.0000
     78 H14S        7.1880   -0.5810    2.9120 H         1 SOP1        0.0000
     79 C215        6.8780   -0.9620    5.0250 C.3       1 SOP1        0.0000
     80 H15R        5.8220   -1.2920    4.9060 H         1 SOP1        0.0000
     81 H15S        6.9540   -0.4090    5.9880 H         1 SOP1        0.0000
     82 C216        7.7890   -2.1960    5.0830 C.3       1 SOP1        0.0000
     83 H16R        8.8440   -1.8630    5.2100 H         1 SOP1        0.0000
     84 H16S        7.7250   -2.7440    4.1160 H         1 SOP1        0.0000
     85 C217        7.4310   -3.1560    6.2240 C.3       1 SOP1        0.0000
     86 H17R        6.3750   -3.4860    6.1000 H         1 SOP1        0.0000
     87 H17S        7.4990   -2.6070    7.1910 H         1 SOP1        0.0000
     88 C218        8.3390   -4.3890    6.2810 C.3       1 SOP1        0.0000
     89 H18R        9.3970   -4.0850    6.4310 H         1 SOP1        0.0000
     90 H18S        8.2720   -4.9670    5.3350 H         1 SOP1        0.0000
     91 H18T        8.0430   -5.0540    7.1210 H         1 SOP1        0.0000
     92 C33        -2.5460    8.7340    0.4460 C.3       1 SOP1        0.0000
     93 H3X        -1.5570    9.1870    0.2020 H         1 SOP1        0.0000
     94 H3Y        -2.4280    8.1560    1.3910 H         1 SOP1        0.0000
     95 C34        -3.5610    9.8580    0.6930 C.3       1 SOP1        0.0000
     96 H4X        -4.5360    9.4150    0.9990 H         1 SOP1        0.0000
     97 H4Y        -3.7280   10.4210   -0.2530 H         1 SOP1        0.0000
     98 C35        -3.0860   10.8330    1.7790 C.3       1 SOP1        0.0000
     99 H5X        -2.1190   11.2830    1.4600 H         1 SOP1        0.0000
    100 H5Y        -2.9000   10.2680    2.7200 H         1 SOP1        0.0000
    101 C36        -4.0930   11.9560    2.0590 C.3       1 SOP1        0.0000
    102 H6X        -5.0520   11.5110    2.4080 H         1 SOP1        0.0000
    103 H6Y        -4.2980   12.5080    1.1140 H         1 SOP1        0.0000
    104 C37        -3.5840   12.9460    3.1150 C.3       1 SOP1        0.0000
    105 H7X        -2.6220   13.3850    2.7670 H         1 SOP1        0.0000
    106 H7Y        -3.3800   12.3960    4.0620 H         1 SOP1        0.0000
    107 C38        -4.5750   14.0820    3.4000 C.3       1 SOP1        0.0000
    108 H8X        -5.5360   13.6500    3.7590 H         1 SOP1        0.0000
    109 H8Y        -4.7830   14.6320    2.4540 H         1 SOP1        0.0000
    110 C39        -4.0330   15.0620    4.4480 C.3       1 SOP1        0.0000
    111 H9X        -3.0700   15.4830    4.0830 H         1 SOP1        0.0000
    112 H9Y        -3.8230   14.5030    5.3880 H         1 SOP1        0.0000
    113 C310       -4.9910   16.2180    4.7630 C.3       1 SOP1        0.0000
    114 H10X       -5.9560   15.8070    5.1360 H         1 SOP1        0.0000
    115 H10Y       -5.2020   16.7870    3.8300 H         1 SOP1        0.0000
    116 C311       -4.4050   17.1700    5.8160 C.3       1 SOP1        0.0000
    117 H11X       -3.4390   17.5750    5.4400 H         1 SOP1        0.0000
    118 H11Y       -4.1920   16.5940    6.7450 H         1 SOP1        0.0000
    119 C312       -5.3410   18.3360    6.1530 C.3       1 SOP1        0.0000
    120 H12X       -6.3070   17.9300    6.5290 H         1 SOP1        0.0000
    121 H12Y       -5.5540   18.9120    5.2240 H         1 SOP1        0.0000
    122 C313       -4.7550   19.2870    7.2060 C.3       1 SOP1        0.0000
    123 H13X       -3.7900   19.6980    6.8330 H         1 SOP1        0.0000
    124 H13Y       -4.5430   18.7160    8.1380 H         1 SOP1        0.0000
    125 C314       -5.7100   20.4440    7.5260 C.3       1 SOP1        0.0000
    126 H14X       -6.6740   20.0260    7.8930 H         1 SOP1        0.0000
    127 H14Y       -5.9210   21.0070    6.5890 H         1 SOP1        0.0000
    128 C315       -5.1540   21.4140    8.5760 C.3       1 SOP1        0.0000
    129 H15X       -4.1910   21.8370    8.2120 H         1 SOP1        0.0000
    130 H15Y       -4.9440   20.8560    9.5160 H         1 SOP1        0.0000
    131 C316       -6.1250   22.5640    8.8820 C.3       1 SOP1        0.0000
    132 H16X       -7.0880   22.1410    9.2450 H         1 SOP1        0.0000
    133 H16Y       -6.3360   23.1220    7.9420 H         1 SOP1        0.0000
    134 C317       -5.5680   23.5340    9.9330 C.3       1 SOP1        0.0000
    135 H17X       -4.6000   23.9440    9.5630 H         1 SOP1        0.0000
    136 H17Y       -5.3520   22.9630   10.8650 H         1 SOP1        0.0000
    137 C318       -6.5090   24.6950   10.2630 C.3       1 SOP1        0.0000
    138 H18X       -7.4760   24.3130   10.6580 H         1 SOP1        0.0000
    139 H18Y       -6.7230   25.2950    9.3540 H         1 SOP1        0.0000
    140 H18Z       -6.0520   25.3600   11.0280 H         1 SOP1        0.0000
@<TRIPOS>BOND
     1   32   31 2 
     2   35   33 1 
     3   26   25 1 
     4   34   33 1 
     5   31   33 1 
     6   31   30 1 
     7   33   45 1 
     8   29   28 1 
     9   25   24 1 
    10   25   28 1 
    11   25   27 1 
    12   24   20 1 
    13   28   30 1 
    14   28   36 1 
    15   22   20 2 
    16   46   45 1 
    17   45   47 1 
    18   45   48 1 
    19   20   21 1 
    20   20   23 1 
    21   50   48 1 
    22   36   38 1 
    23   36   39 1 
    24   36   37 1 
    25   48   49 1 
    26   48   51 1 
    27   39   40 1 
    28   11    9 1 
    29   18   17 1 
    30   23   17 1 
    31   44   42 1 
    32   17   19 1 
    33   17    2 1 
    34   12    9 1 
    35   10    9 1 
    36    9    1 1 
    37   53   51 1 
    38   55   54 1 
    39   51   54 1 
    40   51   52 1 
    41   40   42 1 
    42   40   41 2 
    43    6    5 1 
    44   42   43 1 
    45   42   92 1 
    46   54   56 1 
    47   54   57 1 
    48   97   95 1 
    49    8    5 1 
    50    2    1 1 
    51    2    3 1 
    52    2    4 1 
    53    1    5 1 
    54    1   13 1 
    55    5    7 1 
    56   64   63 1 
    57   93   92 1 
    58   92   95 1 
    59   92   94 1 
    60   95   96 1 
    61   95   98 1 
    62   66   65 1 
    63   63   65 2 
    64   63   60 1 
    65   59   57 1 
    66   57   60 1 
    67   57   58 1 
    68  103  101 1 
    69   16   13 1 
    70   13   15 1 
    71   13   14 1 
    72   65   67 1 
    73   99   98 1 
    74   72   70 1 
    75   61   60 1 
    76   60   62 1 
    77   98  101 1 
    78   98  100 1 
    79  101  102 1 
    80  101  104 1 
    81   68   67 1 
    82  109  107 1 
    83   67   70 1 
    84   67   69 1 
    85   70   71 1 
    86   70   73 1 
    87  105  104 1 
    88   78   76 1 
    89  104  107 1 
    90  104  106 1 
    91  107  108 1 
    92  107  110 1 
    93   74   73 1 
    94   73   76 1 
    95   73   75 1 
    96  115  113 1 
    97   76   77 1 
    98   76   79 1 
    99  111  110 1 
   100   84   82 1 
   101  110  113 1 
   102  110  112 1 
   103  113  114 1 
   104  113  116 1 
   105   80   79 1 
   106   79   82 1 
   107   79   81 1 
   108   82   83 1 
   109   82   85 1 
   110  121  119 1 
   111   90   88 1 
   112  117  116 1 
   113  116  119 1 
   114  116  118 1 
   115   86   85 1 
   116  119  120 1 
   117  119  122 1 
   118   85   88 1 
   119   85   87 1 
   120   88   89 1 
   121   88   91 1 
   122  127  125 1 
   123  123  122 1 
   124  122  125 1 
   125  122  124 1 
   126  125  126 1 
   127  125  128 1 
   128  133  131 1 
   129  129  128 1 
   130  128  131 1 
   131  128  130 1 
   132  131  132 1 
   133  131  134 1 
   134  139  137 1 
   135  135  134 1 
   136  134  137 1 
   137  134  136 1 
   138  137  138 1 
   139  137  140 1 
