@<TRIPOS>MOLECULE
C:\Users\Praveer\PycharmProjects\pdb_to_mol2_converter\data\pdb\sope.pdb
  131   130     0     0     0
SMALL
GASTEIGER

@<TRIPOS>ATOM
      1 N           1.2070   -0.1140   -0.2090 N.4       1 SOP1        0.0000
      2 HN1         0.2100   -0.3180   -0.0250 H         1 SOP1        0.0000
      3 HN2         1.8420   -0.7210    0.3540 H         1 SOP1        0.0000
      4 HN3         1.4480   -0.3710   -1.2090 H         1 SOP1        0.0000
      5 C12         1.6090    1.3340   -0.0290 C.3       1 SOP1        0.0000
      6 H12A        1.3090    1.6500    0.9910 H         1 SOP1        0.0000
      7 H12B        1.0550    1.9310   -0.7840 H         1 SOP1        0.0000
      8 C11         3.1310    1.5500   -0.2170 C.3       1 SOP1        0.0000
      9 H11A        3.7070    1.0570    0.6020 H         1 SOP1        0.0000
     10 H11B        3.3310    2.6420   -0.1130 H         1 SOP1        0.0000
     11 P           3.8360   -0.3840   -1.8460 P.3       1 SOP1        0.0000
     12 O13         2.5700   -0.8190   -2.4710 O.2       1 SOP1        0.0000
     13 O14         4.1530   -1.0530   -0.5680 O.3       1 SOP1        0.0000
     14 O12         3.5960    1.1440   -1.5050 O.3       1 SOP1        0.0000
     15 O11         5.0630   -0.3620   -2.8380 O.3       1 SOP1        0.0000
     16 C1          6.1870    0.4920   -2.5830 C.3       1 SOP1        0.0000
     17 HA          7.1140   -0.1240   -2.5680 H         1 SOP1        0.0000
     18 HB          6.1300    1.0030   -1.5890 H         1 SOP1        0.0000
     19 C2          6.3470    1.5960   -3.6710 C.3       1 SOP1        0.0000
     20 HS          6.8850    1.1530   -4.5430 H         1 SOP1        0.0000
     21 O21         7.0630    2.7150   -3.1160 O.3       1 SOP1        0.0000
     22 C21         8.3490    2.5060   -2.9010 C.2       1 SOP1        0.0000
     23 O22         8.9770    1.5200   -3.2410 O.2       1 SOP1        0.0000
     24 C22         8.9780    3.6860   -2.1420 C.3       1 SOP1        0.0000
     25 H2R         9.6180    4.2450   -2.8520 H         1 SOP1        0.0000
     26 H2S         9.6370    3.2290   -1.3720 H         1 SOP1        0.0000
     27 C3          4.9880    2.1220   -4.2120 C.3       1 SOP1        0.0000
     28 HX          4.5080    2.7020   -3.3880 H         1 SOP1        0.0000
     29 HY          4.3360    1.2540   -4.4550 H         1 SOP1        0.0000
     30 O31         5.1860    2.9170   -5.4040 O.3       1 SOP1        0.0000
     31 C31         4.1130    3.6150   -5.7630 C.2       1 SOP1        0.0000
     32 O32         3.0630    3.6660   -5.1470 O.2       1 SOP1        0.0000
     33 C32         4.3720    4.3050   -7.1050 C.3       1 SOP1        0.0000
     34 H2X         3.7200    3.8110   -7.8550 H         1 SOP1        0.0000
     35 H2Y         5.4290    4.1480   -7.4010 H         1 SOP1        0.0000
     36 C23         7.9850    4.6470   -1.4380 C.3       1 SOP1        0.0000
     37 H3R         8.5540    5.2290   -0.6760 H         1 SOP1        0.0000
     38 H3S         7.2070    4.0650   -0.8960 H         1 SOP1        0.0000
     39 C24         7.3330    5.6610   -2.3920 C.3       1 SOP1        0.0000
     40 H4R         6.6760    5.1220   -3.1110 H         1 SOP1        0.0000
     41 H4S         8.1290    6.1670   -2.9830 H         1 SOP1        0.0000
     42 C25         6.4960    6.7380   -1.6790 C.3       1 SOP1        0.0000
     43 H5R         6.0560    7.4070   -2.4530 H         1 SOP1        0.0000
     44 H5S         7.1620    7.3580   -1.0380 H         1 SOP1        0.0000
     45 C26         5.3600    6.1670   -0.8170 C.3       1 SOP1        0.0000
     46 H6R         5.7990    5.6040    0.0350 H         1 SOP1        0.0000
     47 H6S         4.7670    5.4480   -1.4260 H         1 SOP1        0.0000
     48 C27         4.4200    7.2600   -0.2820 C.3       1 SOP1        0.0000
     49 H7R         3.9570    7.7720   -1.1560 H         1 SOP1        0.0000
     50 H7S         5.0120    8.0240    0.2700 H         1 SOP1        0.0000
     51 C28         3.2900    6.7210    0.6200 C.3       1 SOP1        0.0000
     52 H8R         2.7420    5.9300    0.0610 H         1 SOP1        0.0000
     53 H8S         2.5720    7.5520    0.8040 H         1 SOP1        0.0000
     54 C29         3.8060    6.1910    1.9330 C.2       1 SOP1        0.0000
     55 H91         4.8960    6.2610    2.0780 H         1 SOP1        0.0000
     56 C210        3.0470    5.6670    2.9110 C.2       1 SOP1        0.0000
     57 H101        3.5330    5.3190    3.8360 H         1 SOP1        0.0000
     58 C211        1.5480    5.5170    2.8670 C.3       1 SOP1        0.0000
     59 H11R        1.2410    4.8890    2.0020 H         1 SOP1        0.0000
     60 H11S        1.0620    6.5120    2.7420 H         1 SOP1        0.0000
     61 C212        1.0170    4.8750    4.1620 C.3       1 SOP1        0.0000
     62 H12R        1.3000    5.5110    5.0330 H         1 SOP1        0.0000
     63 H12S        1.4860    3.8760    4.3060 H         1 SOP1        0.0000
     64 C213       -0.5100    4.7030    4.1720 C.3       1 SOP1        0.0000
     65 H13R       -0.8170    4.0680    3.3130 H         1 SOP1        0.0000
     66 H13S       -0.9910    5.6990    4.0470 H         1 SOP1        0.0000
     67 C214       -1.0060    4.0660    5.4780 C.3       1 SOP1        0.0000
     68 H14R       -0.7010    4.7110    6.3330 H         1 SOP1        0.0000
     69 H14S       -0.5120    3.0770    5.6120 H         1 SOP1        0.0000
     70 C215       -2.5280    3.8730    5.5210 C.3       1 SOP1        0.0000
     71 H15R       -2.8410    3.2290    4.6700 H         1 SOP1        0.0000
     72 H15S       -3.0260    4.8610    5.4000 H         1 SOP1        0.0000
     73 C216       -2.9950    3.2330    6.8360 C.3       1 SOP1        0.0000
     74 H16R       -2.6830    3.8810    7.6870 H         1 SOP1        0.0000
     75 H16S       -2.4910    2.2480    6.9620 H         1 SOP1        0.0000
     76 C217       -4.5140    3.0280    6.8970 C.3       1 SOP1        0.0000
     77 H17R       -4.8250    2.3840    6.0430 H         1 SOP1        0.0000
     78 H17S       -5.0140    4.0150    6.7710 H         1 SOP1        0.0000
     79 C218       -4.9850    2.3890    8.2070 C.3       1 SOP1        0.0000
     80 H18R       -4.7070    3.0280    9.0730 H         1 SOP1        0.0000
     81 H18S       -4.5160    1.3910    8.3440 H         1 SOP1        0.0000
     82 H18T       -6.0890    2.2610    8.2050 H         1 SOP1        0.0000
     83 C33         4.0520    5.8150   -7.0510 C.3       1 SOP1        0.0000
     84 H3X         4.7400    6.3140   -6.3310 H         1 SOP1        0.0000
     85 H3Y         3.0120    5.9660   -6.6770 H         1 SOP1        0.0000
     86 C34         4.1800    6.5050   -8.4180 C.3       1 SOP1        0.0000
     87 H4X         3.4560    6.0480   -9.1290 H         1 SOP1        0.0000
     88 H4Y         5.2020    6.3370   -8.8240 H         1 SOP1        0.0000
     89 C35         3.9140    8.0150   -8.3230 C.3       1 SOP1        0.0000
     90 H5X         4.6430    8.4610   -7.6090 H         1 SOP1        0.0000
     91 H5Y         2.8940    8.1770   -7.9070 H         1 SOP1        0.0000
     92 C36         4.0250    8.7510   -9.6670 C.3       1 SOP1        0.0000
     93 H6X         3.2820    8.3290  -10.3810 H         1 SOP1        0.0000
     94 H6Y         5.0390    8.5840  -10.0940 H         1 SOP1        0.0000
     95 C37         3.7830   10.2620   -9.5200 C.3       1 SOP1        0.0000
     96 H7X         4.5230   10.6770   -8.7990 H         1 SOP1        0.0000
     97 H7Y         2.7690   10.4260   -9.0920 H         1 SOP1        0.0000
     98 C38         3.8950   11.0330  -10.8450 C.3       1 SOP1        0.0000
     99 H8X         3.1520   10.6280  -11.5670 H         1 SOP1        0.0000
    100 H8Y         4.9090   10.8720  -11.2760 H         1 SOP1        0.0000
    101 C39         3.6570   12.5420  -10.6700 C.3       1 SOP1        0.0000
    102 H9X         4.4000   12.9450   -9.9460 H         1 SOP1        0.0000
    103 H9Y         2.6440   12.7010  -10.2380 H         1 SOP1        0.0000
    104 C310        3.7680   13.3260  -11.9870 C.3       1 SOP1        0.0000
    105 H10X        3.0250   12.9250  -12.7120 H         1 SOP1        0.0000
    106 H10Y        4.7810   13.1680  -12.4200 H         1 SOP1        0.0000
    107 C311        3.5290   14.8340  -11.8080 C.3       1 SOP1        0.0000
    108 H11X        4.2720   15.2360  -11.0840 H         1 SOP1        0.0000
    109 H11Y        2.5160   14.9930  -11.3760 H         1 SOP1        0.0000
    110 C312        3.6400   15.6140  -13.1270 C.3       1 SOP1        0.0000
    111 H12X        2.8970   15.2110  -13.8510 H         1 SOP1        0.0000
    112 H12Y        4.6530   15.4550  -13.5590 H         1 SOP1        0.0000
    113 C313        3.4020   17.1220  -12.9560 C.3       1 SOP1        0.0000
    114 H13X        4.1440   17.5280  -12.2330 H         1 SOP1        0.0000
    115 H13Y        2.3890   17.2850  -12.5240 H         1 SOP1        0.0000
    116 C314        3.5140   17.8960  -14.2780 C.3       1 SOP1        0.0000
    117 H14X        2.7710   17.4900  -15.0000 H         1 SOP1        0.0000
    118 H14Y        4.5270   17.7340  -14.7090 H         1 SOP1        0.0000
    119 C315        3.2760   19.4050  -14.1090 C.3       1 SOP1        0.0000
    120 H15X        4.0200   19.8120  -13.3880 H         1 SOP1        0.0000
    121 H15Y        2.2620   19.5680  -13.6800 H         1 SOP1        0.0000
    122 C316        3.3870   20.1800  -15.4310 C.3       1 SOP1        0.0000
    123 H16X        2.6460   19.7780  -16.1570 H         1 SOP1        0.0000
    124 H16Y        4.3990   20.0220  -15.8670 H         1 SOP1        0.0000
    125 C317        3.1480   21.6850  -15.2510 C.3       1 SOP1        0.0000
    126 H17X        3.8850   22.0820  -14.5160 H         1 SOP1        0.0000
    127 H17Y        2.1390   21.8390  -14.8050 H         1 SOP1        0.0000
    128 C318        3.2530   22.4820  -16.5550 C.3       1 SOP1        0.0000
    129 H18X        2.5010   22.1290  -17.2940 H         1 SOP1        0.0000
    130 H18Y        4.2660   22.3740  -17.0020 H         1 SOP1        0.0000
    131 H18Z        3.0710   23.5610  -16.3640 H         1 SOP1        0.0000
@<TRIPOS>BOND
     1  129  128 1 
     2  130  128 1 
     3  128  131 1 
     4  128  125 1 
     5  123  122 1 
     6  124  122 1 
     7  122  125 1 
     8  122  119 1 
     9  125  127 1 
    10  125  126 1 
    11  117  116 1 
    12  118  116 1 
    13  116  119 1 
    14  116  113 1 
    15  119  121 1 
    16  119  120 1 
    17  111  110 1 
    18  112  110 1 
    19  110  113 1 
    20  110  107 1 
    21  113  115 1 
    22  113  114 1 
    23  105  104 1 
    24  106  104 1 
    25  104  107 1 
    26  104  101 1 
    27  107  109 1 
    28  107  108 1 
    29   99   98 1 
    30  100   98 1 
    31   98  101 1 
    32   98   95 1 
    33  101  103 1 
    34  101  102 1 
    35   93   92 1 
    36   94   92 1 
    37   92   95 1 
    38   92   89 1 
    39   95   97 1 
    40   95   96 1 
    41   87   86 1 
    42   88   86 1 
    43   86   89 1 
    44   86   83 1 
    45   89   91 1 
    46   89   90 1 
    47   34   33 1 
    48   35   33 1 
    49   33   83 1 
    50   33   31 1 
    51   83   85 1 
    52   83   84 1 
    53   31   30 1 
    54   31   32 2 
    55   30   27 1 
    56   20   19 1 
    57   29   27 1 
    58   27   19 1 
    59   27   28 1 
    60   19   21 1 
    61   19   16 1 
    62   23   22 2 
    63   21   22 1 
    64   40   39 1 
    65   41   39 1 
    66   22   24 1 
    67   25   24 1 
    68   15   16 1 
    69   15   11 1 
    70   16   17 1 
    71   16   18 1 
    72   12   11 2 
    73   43   42 1 
    74   39   42 1 
    75   39   36 1 
    76   24   36 1 
    77   24   26 1 
    78   11   14 1 
    79   11   13 1 
    80   42   44 1 
    81   42   45 1 
    82   14    8 1 
    83   36   38 1 
    84   36   37 1 
    85   47   45 1 
    86    4    1 1 
    87   49   48 1 
    88   45   48 1 
    89   45   46 1 
    90    7    5 1 
    91   48   50 1 
    92   48   51 1 
    93    8   10 1 
    94    8    5 1 
    95    8    9 1 
    96    1    5 1 
    97    1    2 1 
    98    1    3 1 
    99    5    6 1 
   100   52   51 1 
   101   51   53 1 
   102   51   54 1 
   103   54   55 1 
   104   54   56 2 
   105   59   58 1 
   106   60   58 1 
   107   58   56 1 
   108   58   61 1 
   109   56   57 1 
   110   65   64 1 
   111   66   64 1 
   112   61   64 1 
   113   61   63 1 
   114   61   62 1 
   115   64   67 1 
   116   71   70 1 
   117   72   70 1 
   118   67   70 1 
   119   67   69 1 
   120   67   68 1 
   121   70   73 1 
   122   77   76 1 
   123   78   76 1 
   124   73   76 1 
   125   73   75 1 
   126   73   74 1 
   127   76   79 1 
   128   82   79 1 
   129   79   81 1 
   130   79   80 1 
