@<TRIPOS>MOLECULE
C:\Users\Praveer\PycharmProjects\pdb_to_mol2_converter\data\pdb\sopg.pdb
  133   132     0     0     0
SMALL
GASTEIGER

@<TRIPOS>ATOM
      1 C13         0.0740   -0.0750   -0.0840 C.3       1 SOP1        0.0000
      2 H13A       -0.3030    0.4270   -1.0020 H         1 SOP1        0.0000
      3 H13B       -0.1940   -1.1510   -0.1410 H         1 SOP1        0.0000
      4 OC3        -0.5460    0.5260    1.0550 O.3       1 SOP1        0.0000
      5 HO3        -0.4090    1.4770    0.9270 H         1 SOP1        0.0000
      6 C12         1.6150    0.0780   -0.0190 C.3       1 SOP1        0.0000
      7 H12A        1.9860   -0.5640    0.8120 H         1 SOP1        0.0000
      8 OC2         2.2230   -0.3780   -1.2270 O.3       1 SOP1        0.0000
      9 HO2         2.4280    0.4360   -1.7350 H         1 SOP1        0.0000
     10 C11         2.0470    1.5400    0.2700 C.3       1 SOP1        0.0000
     11 H11A        3.1400    1.6620    0.0860 H         1 SOP1        0.0000
     12 H11B        1.8880    1.7160    1.3590 H         1 SOP1        0.0000
     13 P           1.5710    2.8600   -1.9620 P.3       1 SOP1        0.0000
     14 O13         0.3240    2.7270   -2.7370 O.2       1 SOP1        0.0000
     15 O14         2.7430    2.0650   -2.3910 O.3       1 SOP1        0.0000
     16 O12         1.2560    2.4890   -0.4520 O.3       1 SOP1        0.0000
     17 O11         1.9530    4.3950   -1.8520 O.3       1 SOP1        0.0000
     18 C1          2.5250    4.9750   -0.6810 C.3       1 SOP1        0.0000
     19 HA          3.3780    5.6190   -0.9890 H         1 SOP1        0.0000
     20 HB          2.9440    4.2100    0.0130 H         1 SOP1        0.0000
     21 C2          1.5000    5.8530    0.0990 C.3       1 SOP1        0.0000
     22 HS          1.3340    6.7860   -0.4880 H         1 SOP1        0.0000
     23 O21         2.0190    6.1310    1.4130 O.3       1 SOP1        0.0000
     24 C21         3.0010    7.0100    1.4490 C.2       1 SOP1        0.0000
     25 O22         3.3870    7.6910    0.5140 O.2       1 SOP1        0.0000
     26 C22         3.6250    7.0750    2.8500 C.3       1 SOP1        0.0000
     27 H2R         3.2790    8.0080    3.3350 H         1 SOP1        0.0000
     28 H2S         4.7210    7.1570    2.6850 H         1 SOP1        0.0000
     29 C3          0.1040    5.1830    0.2660 C.3       1 SOP1        0.0000
     30 HX          0.2540    4.2750    0.8960 H         1 SOP1        0.0000
     31 HY         -0.2610    4.8640   -0.7350 H         1 SOP1        0.0000
     32 O31        -0.8510    6.1000    0.8510 O.3       1 SOP1        0.0000
     33 C31        -1.9370    5.5020    1.3300 C.2       1 SOP1        0.0000
     34 O32        -2.1440    4.3040    1.3460 O.2       1 SOP1        0.0000
     35 C32        -2.9260    6.5600    1.8220 C.3       1 SOP1        0.0000
     36 H2X        -3.7630    6.5860    1.0930 H         1 SOP1        0.0000
     37 H2Y        -2.4320    7.5520    1.8290 H         1 SOP1        0.0000
     38 C23         3.3510    5.8570    3.7710 C.3       1 SOP1        0.0000
     39 H3R         4.1430    5.8360    4.5560 H         1 SOP1        0.0000
     40 H3S         3.4330    4.9090    3.1960 H         1 SOP1        0.0000
     41 C24         1.9970    5.9350    4.4950 C.3       1 SOP1        0.0000
     42 H4R         1.1760    5.8740    3.7460 H         1 SOP1        0.0000
     43 H4S         1.9170    6.9210    5.0040 H         1 SOP1        0.0000
     44 C25         1.7880    4.8300    5.5450 C.3       1 SOP1        0.0000
     45 H5R         0.7820    4.9670    6.0030 H         1 SOP1        0.0000
     46 H5S         2.5440    4.9390    6.3530 H         1 SOP1        0.0000
     47 C26         1.8710    3.4090    4.9690 C.3       1 SOP1        0.0000
     48 H6R         2.9110    3.2130    4.6320 H         1 SOP1        0.0000
     49 H6S         1.2100    3.3370    4.0750 H         1 SOP1        0.0000
     50 C27         1.4420    2.3380    5.9860 C.3       1 SOP1        0.0000
     51 H7R         0.3670    2.5040    6.2240 H         1 SOP1        0.0000
     52 H7S         2.0140    2.4680    6.9320 H         1 SOP1        0.0000
     53 C28         1.6080    0.8960    5.4690 C.3       1 SOP1        0.0000
     54 H8R         1.0720    0.8050    4.4960 H         1 SOP1        0.0000
     55 H8S         1.1020    0.2110    6.1860 H         1 SOP1        0.0000
     56 C29         3.0550    0.5050    5.3190 C.2       1 SOP1        0.0000
     57 H91         3.7910    1.2800    5.5820 H         1 SOP1        0.0000
     58 C210        3.4850   -0.6960    4.8990 C.2       1 SOP1        0.0000
     59 H101        4.5660   -0.8850    4.8190 H         1 SOP1        0.0000
     60 C211        2.5880   -1.8430    4.5120 C.3       1 SOP1        0.0000
     61 H11R        1.9270   -1.5530    3.6630 H         1 SOP1        0.0000
     62 H11S        1.9280   -2.1280    5.3620 H         1 SOP1        0.0000
     63 C212        3.4120   -3.0740    4.0950 C.3       1 SOP1        0.0000
     64 H12R        4.0770   -3.3810    4.9340 H         1 SOP1        0.0000
     65 H12S        4.0560   -2.8110    3.2250 H         1 SOP1        0.0000
     66 C213        2.5400   -4.2750    3.7050 C.3       1 SOP1        0.0000
     67 H13R        1.8740   -3.9850    2.8600 H         1 SOP1        0.0000
     68 H13S        1.8930   -4.5570    4.5660 H         1 SOP1        0.0000
     69 C214        3.3870   -5.4840    3.2890 C.3       1 SOP1        0.0000
     70 H14R        4.0560   -5.7670    4.1320 H         1 SOP1        0.0000
     71 H14S        4.0330   -5.1930    2.4290 H         1 SOP1        0.0000
     72 C215        2.5480   -6.7030    2.8880 C.3       1 SOP1        0.0000
     73 H15R        1.8800   -6.4250    2.0420 H         1 SOP1        0.0000
     74 H15S        1.9040   -7.0040    3.7440 H         1 SOP1        0.0000
     75 C216        3.4260   -7.8900    2.4700 C.3       1 SOP1        0.0000
     76 H16R        4.0950   -8.1620    3.3180 H         1 SOP1        0.0000
     77 H16S        4.0710   -7.5800    1.6180 H         1 SOP1        0.0000
     78 C217        2.6130   -9.1220    2.0590 C.3       1 SOP1        0.0000
     79 H17R        1.9420   -8.8430    1.2140 H         1 SOP1        0.0000
     80 H17S        1.9660   -9.4270    2.9130 H         1 SOP1        0.0000
     81 C218        3.4880  -10.3060    1.6400 C.3       1 SOP1        0.0000
     82 H18R        4.1500  -10.6150    2.4770 H         1 SOP1        0.0000
     83 H18S        4.1250  -10.0290    0.7730 H         1 SOP1        0.0000
     84 H18T        2.8580  -11.1740    1.3500 H         1 SOP1        0.0000
     85 C33        -3.4830    6.2340    3.2240 C.3       1 SOP1        0.0000
     86 H3X        -2.6650    6.3070    3.9760 H         1 SOP1        0.0000
     87 H3Y        -3.8680    5.1880    3.2430 H         1 SOP1        0.0000
     88 C34        -4.6280    7.1740    3.6240 C.3       1 SOP1        0.0000
     89 H4X        -5.4750    7.0410    2.9150 H         1 SOP1        0.0000
     90 H4Y        -4.2790    8.2280    3.5440 H         1 SOP1        0.0000
     91 C35        -5.1210    6.9150    5.0540 C.3       1 SOP1        0.0000
     92 H5X        -4.2670    7.0490    5.7540 H         1 SOP1        0.0000
     93 H5Y        -5.4620    5.8580    5.1340 H         1 SOP1        0.0000
     94 C36        -6.2650    7.8470    5.4810 C.3       1 SOP1        0.0000
     95 H6X        -7.1360    7.6940    4.8050 H         1 SOP1        0.0000
     96 H6Y        -5.9350    8.9050    5.3760 H         1 SOP1        0.0000
     97 C37        -6.7020    7.6010    6.9310 C.3       1 SOP1        0.0000
     98 H7X        -5.8270    7.7460    7.6050 H         1 SOP1        0.0000
     99 H7Y        -7.0380    6.5450    7.0380 H         1 SOP1        0.0000
    100 C38        -7.8340    8.5280    7.3940 C.3       1 SOP1        0.0000
    101 H8X        -8.7240    8.3830    6.7410 H         1 SOP1        0.0000
    102 H8Y        -7.5090    9.5880    7.2970 H         1 SOP1        0.0000
    103 C39        -8.2270    8.2550    8.8510 C.3       1 SOP1        0.0000
    104 H9X        -7.3350    8.3970    9.5020 H         1 SOP1        0.0000
    105 H9Y        -8.5500    7.1930    8.9480 H         1 SOP1        0.0000
    106 C310       -9.3560    9.1670    9.3440 C.3       1 SOP1        0.0000
    107 H10X      -10.2510    9.0240    8.6980 H         1 SOP1        0.0000
    108 H10Y       -9.0360   10.2290    9.2530 H         1 SOP1        0.0000
    109 C311       -9.7350    8.8780   10.8010 C.3       1 SOP1        0.0000
    110 H11X       -8.8380    9.0180   11.4460 H         1 SOP1        0.0000
    111 H11Y      -10.0520    7.8140   10.8910 H         1 SOP1        0.0000
    112 C312      -10.8630    9.7810   11.3090 C.3       1 SOP1        0.0000
    113 H12X      -11.7610    9.6410   10.6660 H         1 SOP1        0.0000
    114 H12Y      -10.5480   10.8440   11.2210 H         1 SOP1        0.0000
    115 C313      -11.2290    9.4770   12.7680 C.3       1 SOP1        0.0000
    116 H13X      -10.3240    9.6150   13.4000 H         1 SOP1        0.0000
    117 H13Y      -11.5370    8.4110   12.8460 H         1 SOP1        0.0000
    118 C314      -12.3580   10.3750   13.2870 C.3       1 SOP1        0.0000
    119 H14X      -13.2540   10.2340   12.6410 H         1 SOP1        0.0000
    120 H14Y      -12.0410   11.4380   13.1970 H         1 SOP1        0.0000
    121 C315      -12.7420   10.0890   14.7450 C.3       1 SOP1        0.0000
    122 H15X      -11.8510   10.2340   15.3960 H         1 SOP1        0.0000
    123 H15Y      -13.0650    9.0290   14.8400 H         1 SOP1        0.0000
    124 C316      -13.8730   11.0040   15.2320 C.3       1 SOP1        0.0000
    125 H16X      -14.7630   10.8610   14.5790 H         1 SOP1        0.0000
    126 H16Y      -13.5510   12.0650   15.1340 H         1 SOP1        0.0000
    127 C317      -14.2730   10.7360   16.6880 C.3       1 SOP1        0.0000
    128 H17X      -13.3840   10.8820   17.3430 H         1 SOP1        0.0000
    129 H17Y      -14.6000    9.6750   16.7860 H         1 SOP1        0.0000
    130 C318      -15.4000   11.6500   17.1660 C.3       1 SOP1        0.0000
    131 H18X      -16.3020   11.5080   16.5350 H         1 SOP1        0.0000
    132 H18Y      -15.0890   12.7130   17.0910 H         1 SOP1        0.0000
    133 H18Z      -15.6690   11.4340   18.2220 H         1 SOP1        0.0000
@<TRIPOS>BOND
     1   14   13 2 
     2   15   13 1 
     3   13   17 1 
     4   13   16 1 
     5   17   18 1 
     6    9    8 1 
     7    8    6 1 
     8    2    1 1 
     9   19   18 1 
    10   31   29 1 
    11   18   20 1 
    12   18   21 1 
    13   22   21 1 
    14   16   10 1 
    15    3    1 1 
    16    1    6 1 
    17    1    4 1 
    18    6   10 1 
    19    6    7 1 
    20   11   10 1 
    21   21   29 1 
    22   21   23 1 
    23   29   32 1 
    24   29   30 1 
    25   10   12 1 
    26   25   24 2 
    27   83   81 1 
    28   32   33 1 
    29    5    4 1 
    30   36   35 1 
    31   79   78 1 
    32   33   34 2 
    33   33   35 1 
    34   84   81 1 
    35   23   24 1 
    36   24   26 1 
    37   77   75 1 
    38   81   78 1 
    39   81   82 1 
    40   35   37 1 
    41   35   85 1 
    42   73   72 1 
    43   78   75 1 
    44   78   80 1 
    45   71   69 1 
    46   75   72 1 
    47   75   76 1 
    48   28   26 1 
    49   26   27 1 
    50   26   38 1 
    51   67   66 1 
    52   72   69 1 
    53   72   74 1 
    54   89   88 1 
    55   40   38 1 
    56   85   87 1 
    57   85   88 1 
    58   85   86 1 
    59   65   63 1 
    60   69   66 1 
    61   69   70 1 
    62   90   88 1 
    63   88   91 1 
    64   61   60 1 
    65   66   63 1 
    66   66   68 1 
    67   42   41 1 
    68   38   41 1 
    69   38   39 1 
    70   49   47 1 
    71   63   60 1 
    72   63   64 1 
    73   41   43 1 
    74   41   44 1 
    75   54   53 1 
    76   60   58 1 
    77   60   62 1 
    78   48   47 1 
    79   95   94 1 
    80   59   58 1 
    81   58   56 2 
    82   47   44 1 
    83   47   50 1 
    84   91   93 1 
    85   91   94 1 
    86   91   92 1 
    87   56   53 1 
    88   56   57 1 
    89   96   94 1 
    90   53   50 1 
    91   53   55 1 
    92   94   97 1 
    93   44   45 1 
    94   44   46 1 
    95   50   51 1 
    96   50   52 1 
    97  101  100 1 
    98   97   99 1 
    99   97  100 1 
   100   97   98 1 
   101  102  100 1 
   102  100  103 1 
   103  107  106 1 
   104  103  105 1 
   105  103  106 1 
   106  103  104 1 
   107  108  106 1 
   108  106  109 1 
   109  113  112 1 
   110  109  111 1 
   111  109  112 1 
   112  109  110 1 
   113  114  112 1 
   114  112  115 1 
   115  119  118 1 
   116  115  117 1 
   117  115  118 1 
   118  115  116 1 
   119  120  118 1 
   120  118  121 1 
   121  125  124 1 
   122  121  123 1 
   123  121  124 1 
   124  121  122 1 
   125  126  124 1 
   126  124  127 1 
   127  131  130 1 
   128  127  129 1 
   129  127  130 1 
   130  127  128 1 
   131  132  130 1 
   132  130  133 1 
