@<TRIPOS>MOLECULE
C:\Users\Praveer\PycharmProjects\pdb_to_mol2_converter\data\pdb\sops.pdb
  133   132     0     0     0
SMALL
GASTEIGER

@<TRIPOS>ATOM
      1 N          -0.1420    0.3900    0.0300 N.4       1 SOP1        0.0000
      2 HN1        -0.5400    0.0910    0.9350 H         1 SOP1        0.0000
      3 HN2        -0.5050   -0.1470   -0.7960 H         1 SOP1        0.0000
      4 HN3        -0.2780    1.4310   -0.0950 H         1 SOP1        0.0000
      5 C12         1.3240    0.1340   -0.0360 C.3       1 SOP1        0.0000
      6 H12A        1.6000   -0.5260    0.7720 H         1 SOP1        0.0000
      7 C13         1.6380   -0.5940   -1.3590 C.2       1 SOP1        0.0000
      8 O13A        0.6630   -0.9720   -2.0730 O.co2     1 SOP1        0.0000
      9 O13B        2.8210   -0.9620   -1.5440 O.co2     1 SOP1        0.0000
     10 C11         2.1160    1.4700    0.0790 C.3       1 SOP1        0.0000
     11 H11A        1.9040    2.1230   -0.8010 H         1 SOP1        0.0000
     12 H11B        3.2010    1.2160    0.0280 H         1 SOP1        0.0000
     13 P           0.6600    3.1460    1.5220 P.3       1 SOP1        0.0000
     14 O13        -0.0350    2.7540    2.7600 O.3       1 SOP1        0.0000
     15 O14        -0.1460    3.0850    0.2790 O.2       1 SOP1        0.0000
     16 O12         1.8630    2.1360    1.3220 O.3       1 SOP1        0.0000
     17 O11         1.3750    4.5440    1.6960 O.3       1 SOP1        0.0000
     18 C1          2.6760    4.8330    1.1830 C.3       1 SOP1        0.0000
     19 HA          2.6430    5.8350    0.7010 H         1 SOP1        0.0000
     20 HB          2.9970    4.1130    0.3950 H         1 SOP1        0.0000
     21 C2          3.7700    4.8630    2.2950 C.3       1 SOP1        0.0000
     22 HS          3.5970    5.7650    2.9290 H         1 SOP1        0.0000
     23 O21         5.0680    4.8890    1.6710 O.3       1 SOP1        0.0000
     24 C21         5.4130    6.0430    1.1330 C.2       1 SOP1        0.0000
     25 O22         4.8040    7.0930    1.2430 O.2       1 SOP1        0.0000
     26 C22         6.7090    5.9040    0.3190 C.3       1 SOP1        0.0000
     27 H2R         7.5200    6.4120    0.8760 H         1 SOP1        0.0000
     28 H2S         6.5340    6.4690   -0.6220 H         1 SOP1        0.0000
     29 C3          3.7210    3.6340    3.2480 C.3       1 SOP1        0.0000
     30 HX          3.9830    2.7360    2.6380 H         1 SOP1        0.0000
     31 HY          2.6810    3.5140    3.6220 H         1 SOP1        0.0000
     32 O31         4.6130    3.8080    4.3750 O.3       1 SOP1        0.0000
     33 C31         4.8040    2.6920    5.0730 C.2       1 SOP1        0.0000
     34 O32         4.3580    1.5930    4.7930 O.2       1 SOP1        0.0000
     35 C32         5.6270    2.9960    6.3260 C.3       1 SOP1        0.0000
     36 H2X         4.9530    2.8510    7.1960 H         1 SOP1        0.0000
     37 H2Y         5.9550    4.0540    6.3050 H         1 SOP1        0.0000
     38 C23         7.1280    4.4550   -0.0440 C.3       1 SOP1        0.0000
     39 H3R         7.8490    4.5090   -0.8930 H         1 SOP1        0.0000
     40 H3S         6.2470    3.8760   -0.3970 H         1 SOP1        0.0000
     41 C24         7.8310    3.7150    1.1050 C.3       1 SOP1        0.0000
     42 H4R         7.1040    3.5480    1.9320 H         1 SOP1        0.0000
     43 H4S         8.6490    4.3560    1.5030 H         1 SOP1        0.0000
     44 C25         8.4280    2.3570    0.6980 C.3       1 SOP1        0.0000
     45 H5R         8.8930    1.8960    1.5990 H         1 SOP1        0.0000
     46 H5S         9.2340    2.5170   -0.0530 H         1 SOP1        0.0000
     47 C26         7.3980    1.3740    0.1200 C.3       1 SOP1        0.0000
     48 H6R         7.0280    1.7580   -0.8550 H         1 SOP1        0.0000
     49 H6S         6.5240    1.3140    0.8070 H         1 SOP1        0.0000
     50 C27         7.9700   -0.0410   -0.0680 C.3       1 SOP1        0.0000
     51 H7R         8.2640   -0.4270    0.9340 H         1 SOP1        0.0000
     52 H7S         8.8920    0.0050   -0.6880 H         1 SOP1        0.0000
     53 C28         6.9650   -1.0320   -0.6910 C.3       1 SOP1        0.0000
     54 H8R         6.0100   -0.9750   -0.1210 H         1 SOP1        0.0000
     55 H8S         7.3610   -2.0630   -0.5580 H         1 SOP1        0.0000
     56 C29         6.7140   -0.7650   -2.1530 C.2       1 SOP1        0.0000
     57 H91         7.1510    0.1640   -2.5480 H         1 SOP1        0.0000
     58 C210        6.0310   -1.5730   -2.9840 C.2       1 SOP1        0.0000
     59 H101        5.8810   -1.2600   -4.0280 H         1 SOP1        0.0000
     60 C211        5.3360   -2.8550   -2.5990 C.3       1 SOP1        0.0000
     61 H11R        4.8190   -2.7410   -1.6160 H         1 SOP1        0.0000
     62 H11S        6.0650   -3.6900   -2.5100 H         1 SOP1        0.0000
     63 C212        4.2660   -3.2320   -3.6430 C.3       1 SOP1        0.0000
     64 H12R        4.7490   -3.4040   -4.6300 H         1 SOP1        0.0000
     65 H12S        3.5450   -2.3840   -3.7480 H         1 SOP1        0.0000
     66 C213        3.4540   -4.4810   -3.2650 C.3       1 SOP1        0.0000
     67 H13R        2.8490   -4.2470   -2.3610 H         1 SOP1        0.0000
     68 H13S        4.1470   -5.3110   -3.0090 H         1 SOP1        0.0000
     69 C214        2.5200   -4.9280   -4.4000 C.3       1 SOP1        0.0000
     70 H14R        3.1340   -5.1370   -5.3030 H         1 SOP1        0.0000
     71 H14S        1.8330   -4.0870   -4.6470 H         1 SOP1        0.0000
     72 C215        1.6880   -6.1720   -4.0580 C.3       1 SOP1        0.0000
     73 H15R        1.0280   -5.9380   -3.1930 H         1 SOP1        0.0000
     74 H15S        2.3740   -6.9940   -3.7530 H         1 SOP1        0.0000
     75 C216        0.8320   -6.6440   -5.2430 C.3       1 SOP1        0.0000
     76 H16R        1.5000   -6.8600   -6.1080 H         1 SOP1        0.0000
     77 H16S        0.1460   -5.8200   -5.5440 H         1 SOP1        0.0000
     78 C217        0.0060   -7.8970   -4.9260 C.3       1 SOP1        0.0000
     79 H17R       -0.6630   -7.6740   -4.0630 H         1 SOP1        0.0000
     80 H17S        0.6970   -8.7110   -4.6100 H         1 SOP1        0.0000
     81 C218       -0.8380   -8.3820   -6.1080 C.3       1 SOP1        0.0000
     82 H18R       -0.1860   -8.6330   -6.9730 H         1 SOP1        0.0000
     83 H18S       -1.5520   -7.5920   -6.4250 H         1 SOP1        0.0000
     84 H18T       -1.4170   -9.2890   -5.8290 H         1 SOP1        0.0000
     85 C33         6.8470    2.0560    6.4570 C.3       1 SOP1        0.0000
     86 H3X         7.5540    2.2480    5.6190 H         1 SOP1        0.0000
     87 H3Y         6.5130    0.9950    6.3780 H         1 SOP1        0.0000
     88 C34         7.5950    2.2270    7.7880 C.3       1 SOP1        0.0000
     89 H4X         6.9120    1.9720    8.6280 H         1 SOP1        0.0000
     90 H4Y         7.8940    3.2920    7.9100 H         1 SOP1        0.0000
     91 C35         8.8450    1.3370    7.8640 C.3       1 SOP1        0.0000
     92 H5X         9.5160    1.5980    7.0150 H         1 SOP1        0.0000
     93 H5Y         8.5390    0.2740    7.7360 H         1 SOP1        0.0000
     94 C36         9.6300    1.4770    9.1780 C.3       1 SOP1        0.0000
     95 H6X         8.9720    1.1920   10.0290 H         1 SOP1        0.0000
     96 H6Y         9.9240    2.5410    9.3160 H         1 SOP1        0.0000
     97 C37        10.8920    0.5990    9.1940 C.3       1 SOP1        0.0000
     98 H7X        11.5380    0.8830    8.3330 H         1 SOP1        0.0000
     99 H7Y        10.5930   -0.4640    9.0540 H         1 SOP1        0.0000
    100 C38        11.7070    0.7230   10.4900 C.3       1 SOP1        0.0000
    101 H8X        11.0670    0.4330   11.3530 H         1 SOP1        0.0000
    102 H8Y        12.0060    1.7860   10.6320 H         1 SOP1        0.0000
    103 C39        12.9670   -0.1570   10.4790 C.3       1 SOP1        0.0000
    104 H9X        13.6060    0.1340    9.6150 H         1 SOP1        0.0000
    105 H9Y        12.6670   -1.2190   10.3360 H         1 SOP1        0.0000
    106 C310       13.7920   -0.0400   11.7700 C.3       1 SOP1        0.0000
    107 H10X       13.1560   -0.3320   12.6360 H         1 SOP1        0.0000
    108 H10Y       14.0950    1.0210   11.9140 H         1 SOP1        0.0000
    109 C311       15.0510   -0.9220   11.7540 C.3       1 SOP1        0.0000
    110 H11X       15.6890   -0.6320   10.8900 H         1 SOP1        0.0000
    111 H11Y       14.7500   -1.9850   11.6110 H         1 SOP1        0.0000
    112 C312       15.8760   -0.8070   13.0450 C.3       1 SOP1        0.0000
    113 H12X       15.2400   -1.0980   13.9110 H         1 SOP1        0.0000
    114 H12Y       16.1790    0.2540   13.1900 H         1 SOP1        0.0000
    115 C313       17.1350   -1.6870   13.0340 C.3       1 SOP1        0.0000
    116 H13X       17.7740   -1.3980   12.1700 H         1 SOP1        0.0000
    117 H13Y       16.8360   -2.7490   12.8900 H         1 SOP1        0.0000
    118 C314       17.9550   -1.5670   14.3280 C.3       1 SOP1        0.0000
    119 H14X       17.3160   -1.8580   15.1920 H         1 SOP1        0.0000
    120 H14Y       18.2560   -0.5050   14.4700 H         1 SOP1        0.0000
    121 C315       19.2150   -2.4470   14.3200 C.3       1 SOP1        0.0000
    122 H15X       19.8590   -2.1570   13.4590 H         1 SOP1        0.0000
    123 H15Y       18.9190   -3.5100   14.1800 H         1 SOP1        0.0000
    124 C316       20.0360   -2.3290   15.6120 C.3       1 SOP1        0.0000
    125 H16X       19.4000   -2.6140   16.4780 H         1 SOP1        0.0000
    126 H16Y       20.3350   -1.2680   15.7610 H         1 SOP1        0.0000
    127 C317       21.2930   -3.2080   15.6000 C.3       1 SOP1        0.0000
    128 H17X       21.9240   -2.9210   14.7290 H         1 SOP1        0.0000
    129 H17Y       20.9880   -4.2680   15.4460 H         1 SOP1        0.0000
    130 C318       22.1230   -3.1010   16.8830 C.3       1 SOP1        0.0000
    131 H18X       21.5210   -3.4180   17.7630 H         1 SOP1        0.0000
    132 H18Y       22.4680   -2.0550   17.0380 H         1 SOP1        0.0000
    133 H18Z       23.0180   -3.7570   16.8190 H         1 SOP1        0.0000
@<TRIPOS>BOND
     1   82   81 1 
     2   83   81 1 
     3   81   84 1 
     4   81   78 1 
     5   76   75 1 
     6   77   75 1 
     7   70   69 1 
     8   75   78 1 
     9   75   72 1 
    10   78   80 1 
    11   78   79 1 
    12   71   69 1 
    13   64   63 1 
    14   69   72 1 
    15   69   66 1 
    16   72   74 1 
    17   72   73 1 
    18   59   58 1 
    19   65   63 1 
    20   63   66 1 
    21   63   60 1 
    22   66   68 1 
    23   66   67 1 
    24   58   60 1 
    25   58   56 2 
    26   60   62 1 
    27   60   61 1 
    28   57   56 1 
    29   56   53 1 
    30    8    7 ar
    31    9    7 ar
    32    7    5 1 
    33   39   38 1 
    34   48   47 1 
    35   11   10 1 
    36    3    1 1 
    37   53   55 1 
    38   53   54 1 
    39   53   50 1 
    40   52   50 1 
    41   28   26 1 
    42   40   38 1 
    43    4    1 1 
    44   50   47 1 
    45   50   51 1 
    46   46   44 1 
    47   38   26 1 
    48   38   41 1 
    49    5    1 1 
    50    5   10 1 
    51    5    6 1 
    52   12   10 1 
    53    1    2 1 
    54   10   16 1 
    55   47   44 1 
    56   47   49 1 
    57   15   13 2 
    58   26   27 1 
    59   26   24 1 
    60   20   18 1 
    61   44   41 1 
    62   44   45 1 
    63   19   18 1 
    64   41   43 1 
    65   41   42 1 
    66   24   25 2 
    67   24   23 1 
    68   18   17 1 
    69   18   21 1 
    70   16   13 1 
    71   13   17 1 
    72   13   14 1 
    73   23   21 1 
    74   21   22 1 
    75   21   29 1 
    76   30   29 1 
    77   29   31 1 
    78   29   32 1 
    79   32   33 1 
    80   34   33 2 
    81   33   35 1 
    82   86   85 1 
    83   37   35 1 
    84   35   85 1 
    85   35   36 1 
    86   87   85 1 
    87   85   88 1 
    88   92   91 1 
    89   93   91 1 
    90   88   91 1 
    91   88   90 1 
    92   88   89 1 
    93   91   94 1 
    94   98   97 1 
    95   99   97 1 
    96   94   97 1 
    97   94   96 1 
    98   94   95 1 
    99   97  100 1 
   100  104  103 1 
   101  105  103 1 
   102  103  100 1 
   103  103  106 1 
   104  100  102 1 
   105  100  101 1 
   106  110  109 1 
   107  111  109 1 
   108  109  106 1 
   109  109  112 1 
   110  106  108 1 
   111  106  107 1 
   112  116  115 1 
   113  117  115 1 
   114  115  112 1 
   115  115  118 1 
   116  112  114 1 
   117  112  113 1 
   118  122  121 1 
   119  123  121 1 
   120  121  118 1 
   121  121  124 1 
   122  118  120 1 
   123  118  119 1 
   124  128  127 1 
   125  129  127 1 
   126  127  124 1 
   127  127  130 1 
   128  124  126 1 
   129  124  125 1 
   130  133  130 1 
   131  130  132 1 
   132  130  131 1 
