@<TRIPOS>MOLECULE
C:\Users\Praveer\PycharmProjects\pdb_to_mol2_converter\data\pdb\ssm.pdb
  133   132     0     0     0
SMALL
GASTEIGER

@<TRIPOS>ATOM
      1 N           1.5240    0.0080    0.0160 N.4       1 SSM1        0.0000
      2 C15         2.0580    1.4060    0.0270 C.3       1 SSM1        0.0000
      3 H15A        1.6930    1.9420   -0.8440 H         1 SSM1        0.0000
      4 H15B        3.1390    1.4100   -0.0070 H         1 SSM1        0.0000
      5 H15C        1.7320    1.9420    0.9080 H         1 SSM1        0.0000
      6 C14         1.9950   -0.6990   -1.2240 C.3       1 SSM1        0.0000
      7 H14A        3.0660   -0.7550   -1.3010 H         1 SSM1        0.0000
      8 H14B        1.5890   -0.2260   -2.1210 H         1 SSM1        0.0000
      9 H14C        1.5730   -1.7070   -1.2660 H         1 SSM1        0.0000
     10 C13         2.0280   -0.7550    1.2040 C.3       1 SSM1        0.0000
     11 H13A        1.7100   -0.2970    2.1310 H         1 SSM1        0.0000
     12 H13B        3.1090   -0.8090    1.1970 H         1 SSM1        0.0000
     13 H13C        1.6470   -1.7720    1.1780 H         1 SSM1        0.0000
     14 C12         0.0010    0.0100    0.0200 C.3       1 SSM1        0.0000
     15 H12A       -0.3910    0.3610    0.9630 H         1 SSM1        0.0000
     16 H12B       -0.3390   -1.0270   -0.0810 H         1 SSM1        0.0000
     17 C11        -0.7040    0.7680   -1.1240 C.3       1 SSM1        0.0000
     18 H11A        0.0080    1.1700   -1.8800 H         1 SSM1        0.0000
     19 H11B       -1.2440    1.6440   -0.7000 H         1 SSM1        0.0000
     20 P          -1.0920   -1.3470   -2.5480 P.3       1 SSM1        0.0000
     21 O13        -0.0660   -0.8220   -3.4810 O.2       1 SSM1        0.0000
     22 O14        -0.6330   -2.3520   -1.5640 O.3       1 SSM1        0.0000
     23 O11        -2.3500   -1.8620   -3.3570 O.3       1 SSM1        0.0000
     24 O12        -1.6520   -0.1060   -1.7330 O.3       1 SSM1        0.0000
     25 C1S        -3.0490   -1.0210   -4.2850 C.3       1 SSM1        0.0000
     26 H1S        -2.8720    0.0640   -4.0980 H         1 SSM1        0.0000
     27 H1T        -4.1390   -1.1960   -4.1550 H         1 SSM1        0.0000
     28 NF         -1.2430   -1.2490   -5.9260 N.am      1 SSM1        0.0000
     29 HNF        -0.7500   -0.8330   -5.1540 H         1 SSM1        0.0000
     30 C2S        -2.6840   -1.3280   -5.7760 C.3       1 SSM1        0.0000
     31 H2S        -2.9880   -2.3880   -5.9490 H         1 SSM1        0.0000
     32 C3S        -3.5370   -0.4440   -6.7380 C.3       1 SSM1        0.0000
     33 H3S        -3.5060    0.6100   -6.3830 H         1 SSM1        0.0000
     34 O3         -4.9120   -0.8350   -6.7350 O.3       1 SSM1        0.0000
     35 HO3        -4.9820   -1.5550   -6.1050 H         1 SSM1        0.0000
     36 C4S        -3.0570   -0.5000   -8.1670 C.2       1 SSM1        0.0000
     37 H4S        -3.2820   -1.4410   -8.6870 H         1 SSM1        0.0000
     38 C5S        -2.3310    0.4520   -8.7910 C.2       1 SSM1        0.0000
     39 H5S        -2.0370    1.3500   -8.2240 H         1 SSM1        0.0000
     40 C6S        -1.7710    0.3480  -10.1920 C.3       1 SSM1        0.0000
     41 H6S        -2.0420    1.2490  -10.7850 H         1 SSM1        0.0000
     42 H6T        -2.1860   -0.5360  -10.7300 H         1 SSM1        0.0000
     43 C7S        -0.2310    0.2160  -10.1770 C.3       1 SSM1        0.0000
     44 H7S         0.0260   -0.6620   -9.5480 H         1 SSM1        0.0000
     45 H7T         0.2210    1.1130   -9.6980 H         1 SSM1        0.0000
     46 C8S         0.3980    0.0180  -11.5710 C.3       1 SSM1        0.0000
     47 H8S         0.0510    0.8330  -12.2430 H         1 SSM1        0.0000
     48 H8T         0.0380   -0.9510  -11.9860 H         1 SSM1        0.0000
     49 C9S         1.9410    0.0080  -11.5620 C.3       1 SSM1        0.0000
     50 H9S         2.2920   -0.7520  -10.8340 H         1 SSM1        0.0000
     51 H9T         2.3180    0.9960  -11.2190 H         1 SSM1        0.0000
     52 C10S        2.5710   -0.3350  -12.9250 C.3       1 SSM1        0.0000
     53 H10S        2.5730    0.5790  -13.5600 H         1 SSM1        0.0000
     54 H10T        1.9390   -1.1040  -13.4230 H         1 SSM1        0.0000
     55 C11S        4.0030   -0.8960  -12.8220 C.3       1 SSM1        0.0000
     56 H11S        3.9770   -1.8480  -12.2440 H         1 SSM1        0.0000
     57 H11T        4.6360   -0.1740  -12.2610 H         1 SSM1        0.0000
     58 C12S        4.6430   -1.1630  -14.1970 C.3       1 SSM1        0.0000
     59 H12S        4.6250   -0.2160  -14.7820 H         1 SSM1        0.0000
     60 H12T        4.0300   -1.9110  -14.7480 H         1 SSM1        0.0000
     61 C13S        6.0960   -1.6680  -14.1290 C.3       1 SSM1        0.0000
     62 H13S        6.1270   -2.6400  -13.5890 H         1 SSM1        0.0000
     63 H13T        6.7050   -0.9380  -13.5500 H         1 SSM1        0.0000
     64 C14S        6.7210   -1.8410  -15.5250 C.3       1 SSM1        0.0000
     65 H14S        6.6170   -0.8810  -16.0810 H         1 SSM1        0.0000
     66 H14T        6.1540   -2.6170  -16.0860 H         1 SSM1        0.0000
     67 C15S        8.2100   -2.2280  -15.5000 C.3       1 SSM1        0.0000
     68 H15S        8.3300   -3.2020  -14.9760 H         1 SSM1        0.0000
     69 H15T        8.7730   -1.4600  -14.9230 H         1 SSM1        0.0000
     70 C16S        8.8170   -2.3340  -16.9100 C.3       1 SSM1        0.0000
     71 H16S        8.6860   -1.3610  -17.4340 H         1 SSM1        0.0000
     72 H16T        8.2620   -3.1060  -17.4880 H         1 SSM1        0.0000
     73 C17S       10.3110   -2.6930  -16.9040 C.3       1 SSM1        0.0000
     74 H17S       10.4440   -3.6660  -16.3780 H         1 SSM1        0.0000
     75 H17T       10.8640   -1.9210  -16.3220 H         1 SSM1        0.0000
     76 C18S       10.9200   -2.7940  -18.3070 C.3       1 SSM1        0.0000
     77 H18S       10.8260   -1.8260  -18.8430 H         1 SSM1        0.0000
     78 H18T       10.4020   -3.5760  -18.9020 H         1 SSM1        0.0000
     79 H18U       11.9980   -3.0570  -18.2470 H         1 SSM1        0.0000
     80 C1F        -0.5800   -2.0470   -6.7560 C.2       1 SSM1        0.0000
     81 OF         -1.1860   -2.8770   -7.4190 O.2       1 SSM1        0.0000
     82 C2F         0.9160   -1.8840   -6.7860 C.3       1 SSM1        0.0000
     83 H2F         1.2810   -1.8270   -5.7380 H         1 SSM1        0.0000
     84 H2G         1.1510   -0.9130   -7.2760 H         1 SSM1        0.0000
     85 C3F         1.6540   -3.0260   -7.5290 C.3       1 SSM1        0.0000
     86 H3F         1.3760   -4.0080   -7.0870 H         1 SSM1        0.0000
     87 H3G         2.7480   -2.8830   -7.3780 H         1 SSM1        0.0000
     88 C4F         1.3770   -3.0200   -9.0390 C.3       1 SSM1        0.0000
     89 H4F         1.6000   -2.0040   -9.4170 H         1 SSM1        0.0000
     90 H4G         0.2970   -3.2070   -9.2280 H         1 SSM1        0.0000
     91 C5F         2.1790   -4.0230   -9.8720 C.3       1 SSM1        0.0000
     92 H5F         2.0220   -5.0490   -9.4740 H         1 SSM1        0.0000
     93 H5G         3.2630   -3.7820   -9.8030 H         1 SSM1        0.0000
     94 C6F         1.7220   -3.9620  -11.3370 C.3       1 SSM1        0.0000
     95 H6F         1.7550   -2.9010  -11.6680 H         1 SSM1        0.0000
     96 H6G         0.6620   -4.2950  -11.4100 H         1 SSM1        0.0000
     97 C7F         2.5980   -4.7840  -12.2840 C.3       1 SSM1        0.0000
     98 H7F         2.4480   -5.8680  -12.0800 H         1 SSM1        0.0000
     99 H7G         3.6660   -4.5380  -12.0810 H         1 SSM1        0.0000
    100 C8F         2.2960   -4.4990  -13.7620 C.3       1 SSM1        0.0000
    101 H8F         2.4410   -3.4150  -13.9600 H         1 SSM1        0.0000
    102 H8G         1.2320   -4.7380  -13.9840 H         1 SSM1        0.0000
    103 C9F         3.2080   -5.3090  -14.6890 C.3       1 SSM1        0.0000
    104 H9F         3.0480   -6.3910  -14.4750 H         1 SSM1        0.0000
    105 H9G         4.2680   -5.0680  -14.4500 H         1 SSM1        0.0000
    106 C10F        2.9660   -5.0500  -16.1810 C.3       1 SSM1        0.0000
    107 H10F        3.1840   -3.9840  -16.4190 H         1 SSM1        0.0000
    108 H10G        1.8950   -5.2400  -16.4160 H         1 SSM1        0.0000
    109 C11F        3.8460   -5.9570  -17.0520 C.3       1 SSM1        0.0000
    110 H11F        3.6530   -7.0170  -16.7720 H         1 SSM1        0.0000
    111 H11G        4.9160   -5.7410  -16.8360 H         1 SSM1        0.0000
    112 C12F        3.5960   -5.7940  -18.5560 C.3       1 SSM1        0.0000
    113 H12F        3.7710   -4.7330  -18.8450 H         1 SSM1        0.0000
    114 H12G        2.5320   -6.0350  -18.7790 H         1 SSM1        0.0000
    115 C13F        4.5060   -6.7020  -19.3960 C.3       1 SSM1        0.0000
    116 H13F        4.3350   -7.7620  -19.1040 H         1 SSM1        0.0000
    117 H13G        5.5680   -6.4560  -19.1690 H         1 SSM1        0.0000
    118 C14F        4.2690   -6.5510  -20.9040 C.3       1 SSM1        0.0000
    119 H14F        4.4020   -5.4830  -21.1860 H         1 SSM1        0.0000
    120 H14G        3.2190   -6.8370  -21.1400 H         1 SSM1        0.0000
    121 C15F        5.2260   -7.4110  -21.7420 C.3       1 SSM1        0.0000
    122 H15F        5.0820   -8.4830  -21.4790 H         1 SSM1        0.0000
    123 H15G        6.2750   -7.1390  -21.4870 H         1 SSM1        0.0000
    124 C16F        5.0150   -7.2260  -23.2510 C.3       1 SSM1        0.0000
    125 H16F        5.1620   -6.1540  -23.5090 H         1 SSM1        0.0000
    126 H16G        3.9650   -7.4940  -23.5080 H         1 SSM1        0.0000
    127 C17F        5.9710   -8.0790  -24.0950 C.3       1 SSM1        0.0000
    128 H17F        5.8120   -9.1520  -23.8430 H         1 SSM1        0.0000
    129 H17G        7.0190   -7.8230  -23.8170 H         1 SSM1        0.0000
    130 C18F        5.7870   -7.8810  -25.6020 C.3       1 SSM1        0.0000
    131 H18F        5.9720   -6.8210  -25.8790 H         1 SSM1        0.0000
    132 H18G        4.7510   -8.1470  -25.9050 H         1 SSM1        0.0000
    133 H18H        6.4950   -8.5220  -26.1700 H         1 SSM1        0.0000
@<TRIPOS>BOND
     1  133  130 1 
     2  132  130 1 
     3  131  130 1 
     4  130  127 1 
     5  127  128 1 
     6  127  129 1 
     7  127  124 1 
     8  125  124 1 
     9  126  124 1 
    10  124  121 1 
    11  121  123 1 
    12  121  122 1 
    13  121  118 1 
    14  119  118 1 
    15  120  118 1 
    16  118  115 1 
    17  115  117 1 
    18  115  116 1 
    19  115  112 1 
    20   78   76 1 
    21  113  112 1 
    22   77   76 1 
    23  114  112 1 
    24  112  109 1 
    25   76   79 1 
    26   76   73 1 
    27   72   70 1 
    28   71   70 1 
    29  109  111 1 
    30  109  110 1 
    31  109  106 1 
    32   70   73 1 
    33   70   67 1 
    34   73   74 1 
    35   73   75 1 
    36  107  106 1 
    37  108  106 1 
    38  106  103 1 
    39   66   64 1 
    40   65   64 1 
    41   64   67 1 
    42   64   61 1 
    43   67   68 1 
    44   67   69 1 
    45   59   58 1 
    46   60   58 1 
    47  103  104 1 
    48  103  105 1 
    49  103  100 1 
    50   58   61 1 
    51   58   55 1 
    52   61   62 1 
    53   61   63 1 
    54  102  100 1 
    55  101  100 1 
    56  100   97 1 
    57   53   52 1 
    58   54   52 1 
    59   52   55 1 
    60   52   49 1 
    61   55   57 1 
    62   55   56 1 
    63   97   99 1 
    64   97   98 1 
    65   97   94 1 
    66   47   46 1 
    67   48   46 1 
    68   95   94 1 
    69   46   49 1 
    70   46   43 1 
    71   49   51 1 
    72   49   50 1 
    73   96   94 1 
    74   94   91 1 
    75   41   40 1 
    76   42   40 1 
    77   40   43 1 
    78   40   38 1 
    79   43   45 1 
    80   43   44 1 
    81   91   93 1 
    82   91   92 1 
    83   91   88 1 
    84   89   88 1 
    85   90   88 1 
    86   88   85 1 
    87   38   39 1 
    88   38   36 2 
    89   37   36 1 
    90   36   32 1 
    91   85   87 1 
    92   85   86 1 
    93   85   82 1 
    94   81   80 2 
    95   84   82 1 
    96   82   80 1 
    97   82   83 1 
    98   80   28 am
    99   32   34 1 
   100   32   33 1 
   101   32   30 1 
   102   34   35 1 
   103   31   30 1 
   104   28   30 1 
   105   28   29 1 
   106   30   25 1 
   107   25   27 1 
   108   25   26 1 
   109   25   23 1 
   110   21   20 2 
   111   23   20 1 
   112   20   24 1 
   113   20   22 1 
   114    8    6 1 
   115   18   17 1 
   116   24   17 1 
   117    7    6 1 
   118    9    6 1 
   119    6    1 1 
   120   17   19 1 
   121   17   14 1 
   122    3    2 1 
   123   16   14 1 
   124    4    2 1 
   125    1   14 1 
   126    1    2 1 
   127    1   10 1 
   128   14   15 1 
   129    2    5 1 
   130   13   10 1 
   131   12   10 1 
   132   10   11 1 
