@<TRIPOS>MOLECULE
C:\Users\Praveer\PycharmProjects\pdb_to_mol2_converter\data\pdb\ste.pdb
   55    54     0     0     0
SMALL
GASTEIGER

@<TRIPOS>ATOM
      1 O1          0.0160   -0.1240    0.0170 O.co2     1 STE1        0.0000
      2 O2          2.0870   -0.9260   -0.1350 O.co2     1 STE1        0.0000
      3 C1          1.2650    0.0220   -0.0370 C.2       1 STE1        0.0000
      4 C2          1.8200    1.4450   -0.0060 C.3       1 STE1        0.0000
      5 H2R         1.3420    1.9900   -0.8460 H         1 STE1        0.0000
      6 H2S         2.9130    1.4030   -0.1820 H         1 STE1        0.0000
      7 C3          1.5130    2.1630    1.3280 C.3       1 STE1        0.0000
      8 H3R         0.4330    2.0420    1.5720 H         1 STE1        0.0000
      9 H3S         1.7140    3.2460    1.1890 H         1 STE1        0.0000
     10 C4          2.3720    1.6430    2.4900 C.3       1 STE1        0.0000
     11 H4R         3.4440    1.8110    2.2480 H         1 STE1        0.0000
     12 H4S         2.2190    0.5400    2.5570 H         1 STE1        0.0000
     13 C5          2.0480    2.2640    3.8630 C.3       1 STE1        0.0000
     14 H5R         2.7020    1.7580    4.6100 H         1 STE1        0.0000
     15 H5S         0.9950    2.0360    4.1360 H         1 STE1        0.0000
     16 C6          2.2960    3.7800    3.9550 C.3       1 STE1        0.0000
     17 H6R         3.1130    4.0530    3.2550 H         1 STE1        0.0000
     18 H6S         2.6500    4.0220    4.9830 H         1 STE1        0.0000
     19 C7          1.0350    4.6220    3.6910 C.3       1 STE1        0.0000
     20 H7R         0.3160    4.4010    4.5130 H         1 STE1        0.0000
     21 H7S         0.5480    4.3100    2.7430 H         1 STE1        0.0000
     22 C8          1.2880    6.1400    3.6540 C.3       1 STE1        0.0000
     23 H8R         2.1520    6.4010    4.3010 H         1 STE1        0.0000
     24 H8S         0.3870    6.6400    4.0820 H         1 STE1        0.0000
     25 C9          1.4840    6.7110    2.2360 C.3       1 STE1        0.0000
     26 H9R         1.4610    7.8220    2.2980 H         1 STE1        0.0000
     27 H9S         0.6270    6.3940    1.6040 H         1 STE1        0.0000
     28 C10         2.8030    6.2970    1.5640 C.3       1 STE1        0.0000
     29 H10R        2.8560    5.1930    1.4620 H         1 STE1        0.0000
     30 H10S        3.6330    6.6120    2.2370 H         1 STE1        0.0000
     31 C11         3.0240    6.9320    0.1800 C.3       1 STE1        0.0000
     32 H11R        4.1120    7.1530    0.0820 H         1 STE1        0.0000
     33 H11S        2.4860    7.9010    0.1110 H         1 STE1        0.0000
     34 C12         2.6500    6.0170   -1.0020 C.3       1 STE1        0.0000
     35 H12R        3.2130    5.0610   -0.8990 H         1 STE1        0.0000
     36 H12S        2.9930    6.4970   -1.9460 H         1 STE1        0.0000
     37 C13         1.1540    5.6800   -1.1370 C.3       1 STE1        0.0000
     38 H13R        0.8300    5.1040   -0.2420 H         1 STE1        0.0000
     39 H13S        1.0270    5.0070   -2.0160 H         1 STE1        0.0000
     40 C14         0.2250    6.8950   -1.3170 C.3       1 STE1        0.0000
     41 H14R        0.2470    7.5130   -0.3940 H         1 STE1        0.0000
     42 H14S       -0.8160    6.5200   -1.4420 H         1 STE1        0.0000
     43 C15         0.5800    7.7770   -2.5250 C.3       1 STE1        0.0000
     44 H15R        0.6990    7.1230   -3.4180 H         1 STE1        0.0000
     45 H15S        1.5590    8.2720   -2.3430 H         1 STE1        0.0000
     46 C16        -0.4800    8.8470   -2.8450 C.3       1 STE1        0.0000
     47 H16R       -1.4210    8.3330   -3.1440 H         1 STE1        0.0000
     48 H16S       -0.1300    9.4400   -3.7200 H         1 STE1        0.0000
     49 C17        -0.7970    9.8150   -1.6910 C.3       1 STE1        0.0000
     50 H17R       -1.2450    9.2400   -0.8490 H         1 STE1        0.0000
     51 H17S       -1.5740   10.5320   -2.0440 H         1 STE1        0.0000
     52 C18         0.4070   10.6080   -1.1720 C.3       1 STE1        0.0000
     53 H18R        0.8800   11.1810   -1.9990 H         1 STE1        0.0000
     54 H18S        1.1680    9.9260   -0.7370 H         1 STE1        0.0000
     55 H18T        0.0900   11.3240   -0.3840 H         1 STE1        0.0000
@<TRIPOS>BOND
     1   48   46 1 
     2   44   43 1 
     3   47   46 1 
     4   46   43 1 
     5   46   49 1 
     6   43   45 1 
     7   43   40 1 
     8   51   49 1 
     9   39   37 1 
    10   53   52 1 
    11   36   34 1 
    12   49   52 1 
    13   49   50 1 
    14   42   40 1 
    15   40   37 1 
    16   40   41 1 
    17   52   54 1 
    18   52   55 1 
    19   37   34 1 
    20   37   38 1 
    21   34   35 1 
    22   34   31 1 
    23    5    4 1 
    24    6    4 1 
    25    2    3 ar
    26    3    4 1 
    27    3    1 ar
    28    4    7 1 
    29   32   31 1 
    30   33   31 1 
    31   31   28 1 
    32    9    7 1 
    33    7    8 1 
    34    7   10 1 
    35   29   28 1 
    36   28   25 1 
    37   28   30 1 
    38   27   25 1 
    39   25   26 1 
    40   25   22 1 
    41   11   10 1 
    42   10   12 1 
    43   10   13 1 
    44   21   19 1 
    45   17   16 1 
    46   22   19 1 
    47   22   24 1 
    48   22   23 1 
    49   19   16 1 
    50   19   20 1 
    51   13   16 1 
    52   13   15 1 
    53   13   14 1 
    54   16   18 1 
