@<TRIPOS>MOLECULE
C:\Users\Praveer\PycharmProjects\pdb_to_mol2_converter\data\pdb\step.pdb
   56    55     0     0     0
SMALL
GASTEIGER

@<TRIPOS>ATOM
      1 H1         -0.0350   -0.0150   -0.0000 H         1 STE1        0.0000
      2 O1          0.9180   -0.0360    0.0640 O.3       1 STE1        0.0000
      3 O2          0.5670    2.1810   -0.0470 O.2       1 STE1        0.0000
      4 C1          1.3630    1.2650    0.0330 C.2       1 STE1        0.0000
      5 C2          2.8790    1.3890    0.1260 C.3       1 STE1        0.0000
      6 H2R         3.2210    0.7870    0.9950 H         1 STE1        0.0000
      7 H2S         3.1280    2.4530    0.3150 H         1 STE1        0.0000
      8 C3          3.5860    0.8970   -1.1560 C.3       1 STE1        0.0000
      9 H3R         3.2470   -0.1310   -1.4170 H         1 STE1        0.0000
     10 H3S         4.6770    0.8430   -0.9410 H         1 STE1        0.0000
     11 C4          3.3790    1.8340   -2.3560 C.3       1 STE1        0.0000
     12 H4R         3.7960    2.8360   -2.1080 H         1 STE1        0.0000
     13 H4S         2.2860    1.9640   -2.5310 H         1 STE1        0.0000
     14 C5          4.0150    1.3390   -3.6690 C.3       1 STE1        0.0000
     15 H5R         3.7580    2.0840   -4.4580 H         1 STE1        0.0000
     16 H5S         3.5630    0.3690   -3.9720 H         1 STE1        0.0000
     17 C6          5.5480    1.2050   -3.6280 C.3       1 STE1        0.0000
     18 H6R         5.9590    1.9490   -2.9140 H         1 STE1        0.0000
     19 H6S         5.9530    1.4620   -4.6340 H         1 STE1        0.0000
     20 C7          6.0340   -0.2150   -3.2920 C.3       1 STE1        0.0000
     21 H7R         5.7190   -0.8770   -4.1310 H         1 STE1        0.0000
     22 H7S         5.5400   -0.5990   -2.3750 H         1 STE1        0.0000
     23 C8          7.5600   -0.3320   -3.1250 C.3       1 STE1        0.0000
     24 H8R         8.0740    0.4260   -3.7540 H         1 STE1        0.0000
     25 H8S         7.8620   -1.3370   -3.5040 H         1 STE1        0.0000
     26 C9          8.0470   -0.2410   -1.6660 C.3       1 STE1        0.0000
     27 H9R         9.1210   -0.5360   -1.6370 H         1 STE1        0.0000
     28 H9S         7.4840   -0.9790   -1.0550 H         1 STE1        0.0000
     29 C10         7.9210    1.1570   -1.0420 C.3       1 STE1        0.0000
     30 H10R        6.8620    1.4880   -1.0350 H         1 STE1        0.0000
     31 H10S        8.4890    1.8630   -1.6910 H         1 STE1        0.0000
     32 C11         8.4790    1.2560    0.3900 C.3       1 STE1        0.0000
     33 H11R        8.9490    2.2620    0.4990 H         1 STE1        0.0000
     34 H11S        9.2830    0.5050    0.5410 H         1 STE1        0.0000
     35 C12         7.4130    1.1430    1.4970 C.3       1 STE1        0.0000
     36 H12R        6.6390    1.9230    1.3200 H         1 STE1        0.0000
     37 H12S        7.8930    1.3770    2.4730 H         1 STE1        0.0000
     38 C13         6.7140   -0.2240    1.6090 C.3       1 STE1        0.0000
     39 H13R        6.1490   -0.4200    0.6710 H         1 STE1        0.0000
     40 H13S        5.9690   -0.1670    2.4350 H         1 STE1        0.0000
     41 C14         7.6510   -1.4120    1.8870 C.3       1 STE1        0.0000
     42 H14R        8.3350   -1.5530    1.0220 H         1 STE1        0.0000
     43 H14S        7.0330   -2.3340    1.9770 H         1 STE1        0.0000
     44 C15         8.4890   -1.2570    3.1670 C.3       1 STE1        0.0000
     45 H15R        7.8110   -0.9700    4.0020 H         1 STE1        0.0000
     46 H15S        9.2180   -0.4290    3.0310 H         1 STE1        0.0000
     47 C16         9.2430   -2.5360    3.5730 C.3       1 STE1        0.0000
     48 H16R        8.4960   -3.3230    3.8240 H         1 STE1        0.0000
     49 H16S        9.8270   -2.3230    4.4970 H         1 STE1        0.0000
     50 C17        10.2010   -3.0940    2.5060 C.3       1 STE1        0.0000
     51 H17R        9.6100   -3.4140    1.6190 H         1 STE1        0.0000
     52 H17S       10.6870   -4.0070    2.9210 H         1 STE1        0.0000
     53 C18        11.2930   -2.1180    2.0540 C.3       1 STE1        0.0000
     54 H18R       11.8910   -1.7730    2.9250 H         1 STE1        0.0000
     55 H18S       10.8450   -1.2290    1.5610 H         1 STE1        0.0000
     56 H18T       11.9770   -2.6090    1.3290 H         1 STE1        0.0000
@<TRIPOS>BOND
     1   19   17 1 
     2   15   14 1 
     3   21   20 1 
     4   16   14 1 
     5   24   23 1 
     6   14   17 1 
     7   14   11 1 
     8   17   20 1 
     9   17   18 1 
    10   25   23 1 
    11   20   23 1 
    12   20   22 1 
    13   23   26 1 
    14   13   11 1 
    15   11   12 1 
    16   11    8 1 
    17   31   29 1 
    18   26   27 1 
    19   26   28 1 
    20   26   29 1 
    21    9    8 1 
    22    8   10 1 
    23    8    5 1 
    24   29   30 1 
    25   29   32 1 
    26    3    4 2 
    27    1    2 1 
    28    4    2 1 
    29    4    5 1 
    30    5    7 1 
    31    5    6 1 
    32   32   33 1 
    33   32   34 1 
    34   32   35 1 
    35   39   38 1 
    36   42   41 1 
    37   36   35 1 
    38   56   53 1 
    39   35   38 1 
    40   35   37 1 
    41   55   53 1 
    42   38   41 1 
    43   38   40 1 
    44   51   50 1 
    45   41   43 1 
    46   41   44 1 
    47   53   50 1 
    48   53   54 1 
    49   50   52 1 
    50   50   47 1 
    51   46   44 1 
    52   44   47 1 
    53   44   45 1 
    54   47   48 1 
    55   47   49 1 
