@<TRIPOS>MOLECULE
C:\Users\Praveer\PycharmProjects\pdb_to_mol2_converter\data\pdb\stlipb.pdb
  384   387     0     0     0
SMALL
GASTEIGER

@<TRIPOS>ATOM
      1 HB6S       -7.5670    2.9300    1.7140 H         1 STL1        0.0000
      2 OB6        -6.3670    1.3890    2.4130 O.3       1 STL1        0.0000
      3 HOB6       -5.5800    0.9160    2.1090 H         1 STL1        0.0000
      4 CB6        -6.8210    2.1970    1.3280 C.3       1 STL1        0.0000
      5 HB6R       -7.3220    1.5500    0.5760 H         1 STL1        0.0000
      6 CB5        -5.6730    2.9200    0.6710 C.3       1 STL1        0.0000
      7 OB5        -4.6130    1.9860    0.4570 O.3       1 STL1        0.0000
      8 HB5        -5.3420    3.7350    1.3590 H         1 STL1        0.0000
      9 CB1        -3.3990    2.6460    0.1020 C.3       1 STL1        0.0000
     10 HB1        -3.0780    3.3210    0.9280 H         1 STL1        0.0000
     11 OA6        -2.3940    1.7080   -0.1430 O.3       1 STL1        0.0000
     12 CA6        -2.1480    0.8900    0.9990 C.3       1 STL1        0.0000
     13 HA6R       -2.6000   -0.1160    0.8410 H         1 STL1        0.0000
     14 HA6S       -2.5910    1.3310    1.9200 H         1 STL1        0.0000
     15 CB4        -5.9600    3.4600   -0.7100 C.3       1 STL1        0.0000
     16 HB4        -6.0100    2.5840   -1.4080 H         1 STL1        0.0000
     17 OB4        -7.1720    4.2160   -0.6730 O.3       1 STL1        0.0000
     18 OD1        -9.5940    3.3890   -0.6510 O.3       1 STL1        0.0000
     19 PB         -8.4240    3.8390   -1.7090 P.3       1 STL1        0.0000
     20 OPB3       -8.0230    2.6310   -2.5550 O.2       1 STL1        0.0000
     21 OPB4       -8.8580    5.0920   -2.4410 O.3       1 STL1        0.0000
     22 CD1       -10.5960    2.4050   -0.8160 C.3       1 STL1        0.0000
     23 HD1       -11.4690    2.8080   -0.2430 H         1 STL1        0.0000
     24 CD5       -10.5940    1.2330   -2.9890 C.3       1 STL1        0.0000
     25 HD51       -9.7900    1.6850   -3.6040 H         1 STL1        0.0000
     26 HD52      -11.3650    0.9870   -3.7510 H         1 STL1        0.0000
     27 OD5       -11.1400    2.2730   -2.1470 O.3       1 STL1        0.0000
     28 CD2       -10.2910    1.0620   -0.1880 C.3       1 STL1        0.0000
     29 HD2       -11.2680    0.5220   -0.1390 H         1 STL1        0.0000
     30 OD2        -9.8960    1.1700    1.1730 O.3       1 STL1        0.0000
     31 HOD2       -9.5260    2.0470    1.3340 H         1 STL1        0.0000
     32 CD3        -9.3670    0.2200   -1.0340 C.3       1 STL1        0.0000
     33 HD3        -8.4320    0.7850   -1.2200 H         1 STL1        0.0000
     34 OD3        -8.9860   -0.9960   -0.3790 O.3       1 STL1        0.0000
     35 HOD3       -8.5650   -0.7550    0.4640 H         1 STL1        0.0000
     36 CD4       -10.0550   -0.0490   -2.3530 C.3       1 STL1        0.0000
     37 HD4        -9.2870   -0.4770   -3.0460 H         1 STL1        0.0000
     38 ND4       -11.0790   -1.0650   -2.2230 N.4       1 STL1        0.0000
     39 HND1      -11.2890   -1.5250   -3.1270 H         1 STL1        0.0000
     40 HND2      -11.9410   -0.6470   -1.8180 H         1 STL1        0.0000
     41 HND3      -10.6840   -1.7630   -1.5470 H         1 STL1        0.0000
     42 CB3        -4.7820    4.3050   -1.1280 C.3       1 STL1        0.0000
     43 OB3        -5.0180    4.7590   -2.4520 O.3       1 STL1        0.0000
     44 HB3        -4.6110    5.1250   -0.3850 H         1 STL1        0.0000
     45 C71        -5.3490    6.0310   -2.6100 C.2       1 STL1        0.0000
     46 O71        -5.2200    6.9070   -1.7760 O.2       1 STL1        0.0000
     47 C72        -5.5740    6.2440   -4.0880 C.3       1 STL1        0.0000
     48 H72R       -6.5630    5.7970   -4.3250 H         1 STL1        0.0000
     49 H72S       -4.7910    5.7050   -4.6600 H         1 STL1        0.0000
     50 CB2        -3.5380    3.4450   -1.1750 C.3       1 STL1        0.0000
     51 HB2        -3.6890    2.7010   -2.0010 H         1 STL1        0.0000
     52 NB2        -2.3240    4.2140   -1.4240 N.am      1 STL1        0.0000
     53 HNB2       -1.9640    4.7220   -0.6530 H         1 STL1        0.0000
     54 CA4         0.0420    2.1360    1.1760 C.3       1 STL1        0.0000
     55 HA4        -0.2280    2.6690    0.2330 H         1 STL1        0.0000
     56 OA4        -0.4250    2.8920    2.2870 O.3       1 STL1        0.0000
     57 HOA4       -0.1890    3.8160    2.0960 H         1 STL1        0.0000
     58 CA5        -0.6560    0.7840    1.1680 C.3       1 STL1        0.0000
     59 HA5        -0.4530    0.2620    2.1320 H         1 STL1        0.0000
     60 OA5        -0.2060   -0.0420    0.0900 O.3       1 STL1        0.0000
     61 CA1         1.2010   -0.2660    0.0880 C.3       1 STL1        0.0000
     62 HA1         1.3680   -0.7740   -0.8940 H         1 STL1        0.0000
     63 OA1         1.5180   -1.1410    1.1640 O.3       1 STL1        0.0000
     64 OC1         2.3820   -3.4910    1.8040 O.3       1 STL1        0.0000
     65 OPA3        3.0270   -2.4660   -0.4650 O.2       1 STL1        0.0000
     66 OPA4        3.9970   -1.4580    1.6870 O.3       1 STL1        0.0000
     67 PA          2.8210   -2.1380    1.0010 P.3       1 STL1        0.0000
     68 CC1         2.3200   -3.7260    3.1890 C.3       1 STL1        0.0000
     69 HC1         1.4320   -4.3930    3.3040 H         1 STL1        0.0000
     70 CC6         4.6490   -3.8210    3.7080 C.3       1 STL1        0.0000
     71 HC61        4.9010   -3.3300    2.7470 H         1 STL1        0.0000
     72 HC62        5.4680   -4.5520    3.8890 H         1 STL1        0.0000
     73 OC6         3.4280   -4.5550    3.5720 O.3       1 STL1        0.0000
     74 CC2         2.1280   -2.6450    4.2520 C.3       1 STL1        0.0000
     75 HC2         1.8300   -3.2330    5.1620 H         1 STL1        0.0000
     76 OC2         1.0130   -1.7960    4.0030 O.3       1 STL1        0.0000
     77 HOC2        0.9660   -1.5740    3.0610 H         1 STL1        0.0000
     78 CC3         3.3720   -1.8930    4.6860 C.3       1 STL1        0.0000
     79 HC3         3.6200   -1.1410    3.9120 H         1 STL1        0.0000
     80 OC3         3.1220   -1.1540    5.8870 O.3       1 STL1        0.0000
     81 HOC3        2.3680   -0.5600    5.7320 H         1 STL1        0.0000
     82 CC5         4.5720   -2.8220    4.8410 C.3       1 STL1        0.0000
     83 HC5         5.4940   -2.1880    4.8070 H         1 STL1        0.0000
     84 NC5         4.5900   -3.5080    6.1170 N.4       1 STL1        0.0000
     85 HNC1        5.5420   -3.8430    6.3570 H         1 STL1        0.0000
     86 HNC2        3.9250   -4.3090    6.0810 H         1 STL1        0.0000
     87 HNC3        4.2560   -2.8150    6.8260 H         1 STL1        0.0000
     88 CA3         1.5530    1.9680    1.1860 C.3       1 STL1        0.0000
     89 HA3         1.8040    1.4090    2.1200 H         1 STL1        0.0000
     90 OA3         2.4110    3.1150    1.1680 O.3       1 STL1        0.0000
     91 C31         2.0400    4.3720    1.0450 C.2       1 STL1        0.0000
     92 O31         0.8930    4.8010    1.0370 O.2       1 STL1        0.0000
     93 C32         3.2770    5.2310    1.2720 C.3       1 STL1        0.0000
     94 H32R        4.0090    4.9820    0.4770 H         1 STL1        0.0000
     95 H32S        3.7120    4.9570    2.2550 H         1 STL1        0.0000
     96 CA2         1.9380    1.0670    0.0240 C.3       1 STL1        0.0000
     97 HA2         1.5170    1.5770   -0.8870 H         1 STL1        0.0000
     98 NA2         3.3610    0.8810   -0.2290 N.am      1 STL1        0.0000
     99 HNA2        3.7350    0.0050    0.0800 H         1 STL1        0.0000
    100 C73        -5.5530    7.7330   -4.4550 C.3       1 STL1        0.0000
    101 H73R       -6.2990    8.2970   -3.8410 H         1 STL1        0.0000
    102 O73        -5.8540    7.7970   -5.8510 O.3       1 STL1        0.0000
    103 C81        -7.1440    7.7380   -6.1480 C.2       1 STL1        0.0000
    104 O81        -8.0580    7.8550   -5.3570 O.2       1 STL1        0.0000
    105 C82        -7.3490    7.6590   -7.6700 C.3       1 STL1        0.0000
    106 H82R       -7.8490    8.6060   -7.9580 H         1 STL1        0.0000
    107 H82S       -8.0600    6.8290   -7.8630 H         1 STL1        0.0000
    108 C83        -6.0750    7.4690   -8.5330 C.3       1 STL1        0.0000
    109 H83R       -5.9070    6.3850   -8.7160 H         1 STL1        0.0000
    110 H83S       -5.1690    7.8630   -8.0210 H         1 STL1        0.0000
    111 C84        -6.1530    8.2290   -9.8640 C.3       1 STL1        0.0000
    112 H84R       -6.3080    9.3070   -9.6290 H         1 STL1        0.0000
    113 H84S       -7.0300    7.8910  -10.4570 H         1 STL1        0.0000
    114 C85        -4.8710    8.0880  -10.6990 C.3       1 STL1        0.0000
    115 H85R       -5.0350    7.3290  -11.4950 H         1 STL1        0.0000
    116 H85S       -4.0480    7.7160  -10.0500 H         1 STL1        0.0000
    117 C86        -4.4250    9.4160  -11.3270 C.3       1 STL1        0.0000
    118 H86R       -4.1820   10.1370  -10.5120 H         1 STL1        0.0000
    119 H86S       -5.2720    9.8370  -11.9110 H         1 STL1        0.0000
    120 C87        -3.2000    9.2800  -12.2440 C.3       1 STL1        0.0000
    121 H87R       -3.3470    8.4220  -12.9390 H         1 STL1        0.0000
    122 H87S       -2.3110    9.0560  -11.6140 H         1 STL1        0.0000
    123 C88        -2.9490   10.5510  -13.0710 C.3       1 STL1        0.0000
    124 H88R       -3.3360   11.4300  -12.5060 H         1 STL1        0.0000
    125 H88S       -3.5390   10.4830  -14.0130 H         1 STL1        0.0000
    126 C89        -1.4730   10.8300  -13.4050 C.3       1 STL1        0.0000
    127 H89R       -0.9280   11.0910  -12.4700 H         1 STL1        0.0000
    128 H89S       -1.4370   11.7210  -14.0730 H         1 STL1        0.0000
    129 C810       -0.7430    9.6690  -14.0950 C.3       1 STL1        0.0000
    130 H810       -1.3820    9.2760  -14.9170 H         1 STL1        0.0000
    131 H810       -0.5860    8.8450  -13.3650 H         1 STL1        0.0000
    132 C811        0.6110   10.0890  -14.6900 C.3       1 STL1        0.0000
    133 H811        1.2460   10.5520  -13.9030 H         1 STL1        0.0000
    134 H811        0.4280   10.8610  -15.4720 H         1 STL1        0.0000
    135 C812        1.3600    8.9110  -15.3290 C.3       1 STL1        0.0000
    136 H812        0.6560    8.3760  -16.0060 H         1 STL1        0.0000
    137 H812        1.6750    8.1980  -14.5350 H         1 STL1        0.0000
    138 C813        2.5850    9.3360  -16.1500 C.3       1 STL1        0.0000
    139 H813        3.3760    9.7160  -15.4660 H         1 STL1        0.0000
    140 H813        2.2910   10.1770  -16.8180 H         1 STL1        0.0000
    141 C814        3.1490    8.2020  -17.0110 C.3       1 STL1        0.0000
    142 H814        2.3660    7.8160  -17.6990 H         1 STL1        0.0000
    143 H814        3.4980    7.3610  -16.3750 H         1 STL1        0.0000
    144 H814        4.0040    8.5630  -17.6220 H         1 STL1        0.0000
    145 C74        -4.1740    8.4110   -4.2550 C.3       1 STL1        0.0000
    146 H74R       -3.4030    7.8530   -4.8280 H         1 STL1        0.0000
    147 H74S       -3.8980    8.3610   -3.1800 H         1 STL1        0.0000
    148 C75        -4.1640    9.8940   -4.6780 C.3       1 STL1        0.0000
    149 H75R       -3.6230   10.5040   -3.9210 H         1 STL1        0.0000
    150 H75S       -5.2190   10.2490   -4.7010 H         1 STL1        0.0000
    151 C76        -3.5200   10.1240   -6.0520 C.3       1 STL1        0.0000
    152 H76R       -3.7090    9.2360   -6.6960 H         1 STL1        0.0000
    153 H76S       -2.4190   10.2000   -5.9160 H         1 STL1        0.0000
    154 C77        -4.0470   11.3680   -6.7890 C.3       1 STL1        0.0000
    155 H77R       -4.7810   11.9150   -6.1610 H         1 STL1        0.0000
    156 H77S       -4.5830   11.0150   -7.7010 H         1 STL1        0.0000
    157 C78        -2.9270   12.3260   -7.2150 C.3       1 STL1        0.0000
    158 H78R       -2.1260   11.7010   -7.6700 H         1 STL1        0.0000
    159 H78S       -2.4940   12.8340   -6.3260 H         1 STL1        0.0000
    160 C79        -3.3590   13.3600   -8.2680 C.3       1 STL1        0.0000
    161 H79R       -3.8020   14.2530   -7.7770 H         1 STL1        0.0000
    162 H79S       -4.1440   12.9000   -8.9100 H         1 STL1        0.0000
    163 C710       -2.1860   13.7540   -9.1770 C.3       1 STL1        0.0000
    164 H710       -1.7230   12.8020   -9.5310 H         1 STL1        0.0000
    165 H710       -1.4140   14.3050   -8.5990 H         1 STL1        0.0000
    166 C711       -2.5770   14.5400  -10.4350 C.3       1 STL1        0.0000
    167 H711       -3.5590   14.1870  -10.8180 H         1 STL1        0.0000
    168 H711       -1.8210   14.3140  -11.2210 H         1 STL1        0.0000
    169 C712       -2.5990   16.0640  -10.2530 C.3       1 STL1        0.0000
    170 H712       -1.7210   16.3920   -9.6530 H         1 STL1        0.0000
    171 H712       -3.5150   16.3460   -9.6900 H         1 STL1        0.0000
    172 C713       -2.5620   16.7880  -11.6070 C.3       1 STL1        0.0000
    173 H713       -3.0810   16.1540  -12.3620 H         1 STL1        0.0000
    174 H713       -1.5010   16.8830  -11.9330 H         1 STL1        0.0000
    175 C714       -3.2280   18.1650  -11.5990 C.3       1 STL1        0.0000
    176 H714       -2.7570   18.8280  -10.8430 H         1 STL1        0.0000
    177 H714       -4.3090   18.0670  -11.3600 H         1 STL1        0.0000
    178 H714       -3.1350   18.6430  -12.5990 H         1 STL1        0.0000
    179 C51        -1.5520    4.0930   -2.5120 C.2       1 STL1        0.0000
    180 O51        -1.9390    3.6080   -3.5660 O.2       1 STL1        0.0000
    181 C52        -0.1230    4.5380   -2.3280 C.3       1 STL1        0.0000
    182 H52R        0.4720    3.6490   -2.0240 H         1 STL1        0.0000
    183 H52S       -0.0610    5.2960   -1.5220 H         1 STL1        0.0000
    184 C53         0.4750    5.1090   -3.6180 C.3       1 STL1        0.0000
    185 H53R        0.3690    4.3480   -4.4310 H         1 STL1        0.0000
    186 O53         1.8430    5.3830   -3.2830 O.3       1 STL1        0.0000
    187 C61         2.7400    4.9870   -4.1830 C.2       1 STL1        0.0000
    188 O61         2.4880    4.5680   -5.2970 O.2       1 STL1        0.0000
    189 C62         4.1400    5.3140   -3.6680 C.3       1 STL1        0.0000
    190 H62R        4.8700    4.8070   -4.3300 H         1 STL1        0.0000
    191 H62S        4.2300    4.8870   -2.6470 H         1 STL1        0.0000
    192 C63         4.4230    6.8290   -3.6140 C.3       1 STL1        0.0000
    193 H63R        5.3920    6.9890   -3.0880 H         1 STL1        0.0000
    194 H63S        3.6370    7.3420   -3.0190 H         1 STL1        0.0000
    195 C64         4.5180    7.4900   -4.9940 C.3       1 STL1        0.0000
    196 H64R        3.5880    7.3090   -5.5750 H         1 STL1        0.0000
    197 H64S        5.3580    7.0380   -5.5650 H         1 STL1        0.0000
    198 C65         4.7350    9.0000   -4.8520 C.3       1 STL1        0.0000
    199 H65R        5.6440    9.1600   -4.2280 H         1 STL1        0.0000
    200 H65S        3.8700    9.4450   -4.3140 H         1 STL1        0.0000
    201 C66         4.9280    9.7330   -6.1830 C.3       1 STL1        0.0000
    202 H66R        4.0370    9.6050   -6.8360 H         1 STL1        0.0000
    203 H66S        5.7980    9.2720   -6.7030 H         1 STL1        0.0000
    204 C67         5.1990   11.2270   -5.9560 C.3       1 STL1        0.0000
    205 H67R        5.8150   11.3280   -5.0320 H         1 STL1        0.0000
    206 H67S        4.2420   11.7590   -5.7630 H         1 STL1        0.0000
    207 C68         5.9740   11.8870   -7.1030 C.3       1 STL1        0.0000
    208 H68R        6.3030   11.1160   -7.8330 H         1 STL1        0.0000
    209 H68S        6.8940   12.3560   -6.6850 H         1 STL1        0.0000
    210 C69         5.1910   12.9780   -7.8390 C.3       1 STL1        0.0000
    211 H69R        4.9440   13.7870   -7.1160 H         1 STL1        0.0000
    212 H69S        4.2300   12.5690   -8.2180 H         1 STL1        0.0000
    213 C610        6.0080   13.5590   -9.0020 C.3       1 STL1        0.0000
    214 H610        5.6550   13.1130   -9.9560 H         1 STL1        0.0000
    215 H610        7.0750   13.2630   -8.8800 H         1 STL1        0.0000
    216 C611        5.9570   15.0880   -9.0840 C.3       1 STL1        0.0000
    217 H611        6.3030   15.5110   -8.1120 H         1 STL1        0.0000
    218 H611        4.9030   15.4140   -9.2320 H         1 STL1        0.0000
    219 C612        6.8280   15.6450  -10.2130 C.3       1 STL1        0.0000
    220 H612        6.5200   15.2190  -11.1920 H         1 STL1        0.0000
    221 H612        7.8940   15.3830  -10.0390 H         1 STL1        0.0000
    222 H612        6.7420   16.7500  -10.2670 H         1 STL1        0.0000
    223 C54        -0.2130    6.4200   -4.0740 C.3       1 STL1        0.0000
    224 H54R       -0.2830    7.1180   -3.2140 H         1 STL1        0.0000
    225 H54S       -1.2450    6.1750   -4.4130 H         1 STL1        0.0000
    226 C55         0.5330    7.1080   -5.2260 C.3       1 STL1        0.0000
    227 H55R        0.7190    6.3560   -6.0280 H         1 STL1        0.0000
    228 H55S        1.5210    7.4540   -4.8500 H         1 STL1        0.0000
    229 C56        -0.1790    8.3070   -5.8530 C.3       1 STL1        0.0000
    230 H56R       -0.2670    9.1180   -5.1040 H         1 STL1        0.0000
    231 H56S       -1.2110    8.0240   -6.1580 H         1 STL1        0.0000
    232 C57         0.5980    8.7990   -7.0810 C.3       1 STL1        0.0000
    233 H57R        0.1480    8.3330   -7.9850 H         1 STL1        0.0000
    234 H57S        1.6520    8.4390   -7.0220 H         1 STL1        0.0000
    235 C58         0.6450   10.3210   -7.2450 C.3       1 STL1        0.0000
    236 H58R        1.4010   10.7440   -6.5460 H         1 STL1        0.0000
    237 H58S       -0.3390   10.7600   -6.9820 H         1 STL1        0.0000
    238 C59         1.0000   10.6900   -8.6890 C.3       1 STL1        0.0000
    239 H59R        0.1700   10.3620   -9.3560 H         1 STL1        0.0000
    240 H59S        1.9140   10.1300   -8.9870 H         1 STL1        0.0000
    241 C510        1.2470   12.1840   -8.9060 C.3       1 STL1        0.0000
    242 H510        2.0020   12.5570   -8.1810 H         1 STL1        0.0000
    243 H510        0.3030   12.7320   -8.7080 H         1 STL1        0.0000
    244 C511        1.7290   12.4750  -10.3340 C.3       1 STL1        0.0000
    245 H511        1.2390   11.7660  -11.0400 H         1 STL1        0.0000
    246 H511        2.8250   12.2920  -10.3890 H         1 STL1        0.0000
    247 C512        1.4040   13.9010  -10.7940 C.3       1 STL1        0.0000
    248 H512        1.6620   14.6280   -9.9940 H         1 STL1        0.0000
    249 H512        0.3070   13.9610  -10.9610 H         1 STL1        0.0000
    250 C513        2.1270   14.2930  -12.0880 C.3       1 STL1        0.0000
    251 H513        1.5020   15.0340  -12.6380 H         1 STL1        0.0000
    252 H513        2.2300   13.3950  -12.7380 H         1 STL1        0.0000
    253 C514        3.5000   14.9160  -11.8360 C.3       1 STL1        0.0000
    254 H514        4.1430   14.2120  -11.2680 H         1 STL1        0.0000
    255 H514        3.3940   15.8480  -11.2380 H         1 STL1        0.0000
    256 H514        4.0060   15.1670  -12.7910 H         1 STL1        0.0000
    257 C33         2.9930    6.7470    1.2490 C.3       1 STL1        0.0000
    258 H33R        3.9470    7.2790    1.4830 H         1 STL1        0.0000
    259 O33         2.0680    7.0760    2.2680 O.3       1 STL1        0.0000
    260 HO33        1.1900    6.7090    2.1230 H         1 STL1        0.0000
    261 C34         2.4920    7.2740   -0.1090 C.3       1 STL1        0.0000
    262 H34R        1.5060    6.8240   -0.3560 H         1 STL1        0.0000
    263 H34S        3.2150    6.9430   -0.8850 H         1 STL1        0.0000
    264 C35         2.3560    8.8060   -0.1880 C.3       1 STL1        0.0000
    265 H35R        3.2890    9.2930    0.1710 H         1 STL1        0.0000
    266 H35S        1.5370    9.1220    0.4970 H         1 STL1        0.0000
    267 C36         2.0480    9.2850   -1.6140 C.3       1 STL1        0.0000
    268 H36R        1.7240    8.4110   -2.2260 H         1 STL1        0.0000
    269 H36S        2.9730    9.6920   -2.0780 H         1 STL1        0.0000
    270 C37         0.9300   10.3330   -1.6720 C.3       1 STL1        0.0000
    271 H37R        1.2150   11.2150   -1.0590 H         1 STL1        0.0000
    272 H37S        0.0160    9.8920   -1.2110 H         1 STL1        0.0000
    273 C38         0.5930   10.7590   -3.1100 C.3       1 STL1        0.0000
    274 H38R       -0.5020   10.6250   -3.2640 H         1 STL1        0.0000
    275 H38S        1.1140   10.0860   -3.8280 H         1 STL1        0.0000
    276 C39         0.9620   12.2130   -3.4320 C.3       1 STL1        0.0000
    277 H39R        1.9250   12.2320   -3.9910 H         1 STL1        0.0000
    278 H39S        1.1170   12.7770   -2.4870 H         1 STL1        0.0000
    279 C310       -0.1130   12.9530   -4.2430 C.3       1 STL1        0.0000
    280 H310       -1.1080   12.8340   -3.7570 H         1 STL1        0.0000
    281 H310       -0.1730   12.4920   -5.2530 H         1 STL1        0.0000
    282 C311        0.2160   14.4490   -4.3570 C.3       1 STL1        0.0000
    283 H311        1.3260   14.5500   -4.3820 H         1 STL1        0.0000
    284 H311       -0.1370   14.9780   -3.4440 H         1 STL1        0.0000
    285 C312       -0.3350   15.1260   -5.6200 C.3       1 STL1        0.0000
    286 H312       -0.7270   14.3640   -6.3270 H         1 STL1        0.0000
    287 H312        0.5120   15.6400   -6.1310 H         1 STL1        0.0000
    288 C313       -1.4150   16.1760   -5.3390 C.3       1 STL1        0.0000
    289 H313       -1.0260   16.8930   -4.5810 H         1 STL1        0.0000
    290 H313       -2.3100   15.6810   -4.8980 H         1 STL1        0.0000
    291 C314       -1.8200   16.9530   -6.5930 C.3       1 STL1        0.0000
    292 H314       -2.3520   16.2900   -7.3070 H         1 STL1        0.0000
    293 H314       -0.9220   17.3620   -7.1040 H         1 STL1        0.0000
    294 H314       -2.4890   17.8000   -6.3300 H         1 STL1        0.0000
    295 C11         4.0390    1.5950   -1.1390 C.2       1 STL1        0.0000
    296 O11         3.8030    2.7810   -1.3450 O.2       1 STL1        0.0000
    297 C12         5.0330    0.8160   -1.9840 C.3       1 STL1        0.0000
    298 H12R        4.4380    0.0930   -2.5830 H         1 STL1        0.0000
    299 H12S        5.7100    0.2350   -1.3290 H         1 STL1        0.0000
    300 C13         5.8370    1.7260   -2.9420 C.3       1 STL1        0.0000
    301 H13R        5.2590    2.6510   -3.1690 H         1 STL1        0.0000
    302 O13         6.1460    0.9590   -4.1200 O.3       1 STL1        0.0000
    303 C21         5.6960    1.4710   -5.2690 C.2       1 STL1        0.0000
    304 O21         5.0400    2.4840   -5.3860 O.2       1 STL1        0.0000
    305 C22         6.0680    0.5600   -6.4390 C.3       1 STL1        0.0000
    306 H22S        5.1660    0.4430   -7.0730 H         1 STL1        0.0000
    307 H22R        6.3450   -0.4350   -6.0330 H         1 STL1        0.0000
    308 C23         7.2380    1.1200   -7.2860 C.3       1 STL1        0.0000
    309 H23R        7.5620    0.3090   -7.9800 H         1 STL1        0.0000
    310 H23S        8.1060    1.3620   -6.6340 H         1 STL1        0.0000
    311 C24         6.8900    2.3430   -8.1550 C.3       1 STL1        0.0000
    312 H24R        6.5960    3.2000   -7.5090 H         1 STL1        0.0000
    313 H24S        6.0190    2.0970   -8.8010 H         1 STL1        0.0000
    314 C25         8.0780    2.7550   -9.0420 C.3       1 STL1        0.0000
    315 H25R        8.4410    1.8530   -9.5850 H         1 STL1        0.0000
    316 H25S        8.9060    3.1170   -8.3930 H         1 STL1        0.0000
    317 C26         7.7550    3.8290  -10.0930 C.3       1 STL1        0.0000
    318 H26R        7.3520    4.7390   -9.5950 H         1 STL1        0.0000
    319 H26S        6.9670    3.4370  -10.7720 H         1 STL1        0.0000
    320 C27         8.9930    4.2160  -10.9230 C.3       1 STL1        0.0000
    321 H27R        9.5750    3.3000  -11.1710 H         1 STL1        0.0000
    322 H27S        9.6470    4.8590  -10.2930 H         1 STL1        0.0000
    323 C28         8.6570    4.9430  -12.2350 C.3       1 STL1        0.0000
    324 H28R        7.6550    5.4190  -12.1510 H         1 STL1        0.0000
    325 H28S        8.6050    4.1940  -13.0580 H         1 STL1        0.0000
    326 C29         9.6800    6.0290  -12.6030 C.3       1 STL1        0.0000
    327 H29R       10.6950    5.5750  -12.6330 H         1 STL1        0.0000
    328 H29S        9.6800    6.8120  -11.8120 H         1 STL1        0.0000
    329 C210        9.3850    6.6880  -13.9590 C.3       1 STL1        0.0000
    330 H210        8.4380    7.2670  -13.8850 H         1 STL1        0.0000
    331 H210        9.2350    5.8930  -14.7240 H         1 STL1        0.0000
    332 C211       10.5180    7.6100  -14.4360 C.3       1 STL1        0.0000
    333 H211       11.4230    6.9890  -14.6220 H         1 STL1        0.0000
    334 H211       10.7690    8.3400  -13.6340 H         1 STL1        0.0000
    335 C212       10.1640    8.3820  -15.7160 C.3       1 STL1        0.0000
    336 H212        9.4330    9.1820  -15.4610 H         1 STL1        0.0000
    337 H212        9.6720    7.6950  -16.4410 H         1 STL1        0.0000
    338 C213       11.3960    9.0020  -16.3900 C.3       1 STL1        0.0000
    339 H213       11.9980    8.1870  -16.8500 H         1 STL1        0.0000
    340 H213       12.0300    9.4950  -15.6190 H         1 STL1        0.0000
    341 C214       11.0360   10.0410  -17.4620 C.3       1 STL1        0.0000
    342 H214       10.5800   10.9260  -16.9640 H         1 STL1        0.0000
    343 H214       10.2760    9.6140  -18.1540 H         1 STL1        0.0000
    344 C215       12.2530   10.4910  -18.2800 C.3       1 STL1        0.0000
    345 H215       12.6220    9.6230  -18.8730 H         1 STL1        0.0000
    346 H215       13.0690   10.7880  -17.5820 H         1 STL1        0.0000
    347 C216       11.9550   11.6590  -19.2230 C.3       1 STL1        0.0000
    348 H216       11.6820   12.5650  -18.6410 H         1 STL1        0.0000
    349 H216       11.1110   11.4090  -19.9000 H         1 STL1        0.0000
    350 H216       12.8460   11.8980  -19.8440 H         1 STL1        0.0000
    351 C14         7.1660    2.1550   -2.2830 C.3       1 STL1        0.0000
    352 H14R        7.6530    1.2440   -1.8690 H         1 STL1        0.0000
    353 H14S        6.9280    2.8290   -1.4310 H         1 STL1        0.0000
    354 C15         8.1900    2.8460   -3.2040 C.3       1 STL1        0.0000
    355 H15R        8.5470    2.1260   -3.9740 H         1 STL1        0.0000
    356 H15S        9.0710    3.1230   -2.5810 H         1 STL1        0.0000
    357 C16         7.6740    4.1110   -3.9000 C.3       1 STL1        0.0000
    358 H16R        7.0400    4.6960   -3.1990 H         1 STL1        0.0000
    359 H16S        7.0460    3.8270   -4.7720 H         1 STL1        0.0000
    360 C17         8.8140    5.0070   -4.3930 C.3       1 STL1        0.0000
    361 H17R        9.5280    4.3950   -4.9880 H         1 STL1        0.0000
    362 H17S        9.3620    5.4060   -3.5100 H         1 STL1        0.0000
    363 C18         8.3180    6.1740   -5.2540 C.3       1 STL1        0.0000
    364 H18R        7.5680    6.7590   -4.6750 H         1 STL1        0.0000
    365 H18S        7.8090    5.7770   -6.1600 H         1 STL1        0.0000
    366 C19         9.4610    7.1010   -5.6770 C.3       1 STL1        0.0000
    367 H19R       10.2010    6.5360   -6.2860 H         1 STL1        0.0000
    368 H19S        9.9810    7.4550   -4.7570 H         1 STL1        0.0000
    369 C110        8.9740    8.3180   -6.4700 C.3       1 STL1        0.0000
    370 H110        8.1510    8.8040   -5.8980 H         1 STL1        0.0000
    371 H110        8.5570    7.9910   -7.4490 H         1 STL1        0.0000
    372 C111       10.0900    9.3460   -6.6890 C.3       1 STL1        0.0000
    373 H111       10.8920    8.9020   -7.3180 H         1 STL1        0.0000
    374 H111       10.5390    9.6010   -5.7020 H         1 STL1        0.0000
    375 C112        9.5760   10.6380   -7.3320 C.3       1 STL1        0.0000
    376 H112        8.6920   10.9910   -6.7550 H         1 STL1        0.0000
    377 H112        9.2360   10.4300   -8.3700 H         1 STL1        0.0000
    378 C113       10.6300   11.7520   -7.3410 C.3       1 STL1        0.0000
    379 H113       11.5240   11.4060   -7.9070 H         1 STL1        0.0000
    380 H113       10.9570   11.9380   -6.2920 H         1 STL1        0.0000
    381 C114       10.1170   13.0580   -7.9530 C.3       1 STL1        0.0000
    382 H114        9.2080   13.4050   -7.4170 H         1 STL1        0.0000
    383 H114        9.8560   12.9150   -9.0230 H         1 STL1        0.0000
    384 H114       10.8930   13.8510   -7.8830 H         1 STL1        0.0000
@<TRIPOS>BOND
     1  349  347 1 
     2  350  347 1 
     3  347  348 1 
     4  347  344 1 
     5  345  344 1 
     6  344  346 1 
     7  344  341 1 
     8  343  341 1 
     9  142  141 1 
    10  144  141 1 
    11  341  342 1 
    12  341  338 1 
    13  141  143 1 
    14  141  138 1 
    15  339  338 1 
    16  140  138 1 
    17  337  335 1 
    18  338  335 1 
    19  338  340 1 
    20  138  139 1 
    21  138  135 1 
    22  136  135 1 
    23  335  336 1 
    24  335  332 1 
    25  134  132 1 
    26  135  132 1 
    27  135  137 1 
    28  130  129 1 
    29  331  329 1 
    30  132  129 1 
    31  132  133 1 
    32  333  332 1 
    33  332  329 1 
    34  332  334 1 
    35  129  126 1 
    36  129  131 1 
    37  128  126 1 
    38  125  123 1 
    39  329  330 1 
    40  329  326 1 
    41  126  123 1 
    42  126  127 1 
    43  123  124 1 
    44  123  120 1 
    45  325  323 1 
    46  121  120 1 
    47  256  253 1 
    48  252  250 1 
    49  251  250 1 
    50  327  326 1 
    51  326  323 1 
    52  326  328 1 
    53  178  175 1 
    54  173  172 1 
    55  120  122 1 
    56  120  117 1 
    57  323  324 1 
    58  323  320 1 
    59  250  253 1 
    60  250  247 1 
    61  174  172 1 
    62  119  117 1 
    63  253  254 1 
    64  253  255 1 
    65  172  175 1 
    66  172  169 1 
    67  175  177 1 
    68  175  176 1 
    69  115  114 1 
    70  117  114 1 
    71  117  118 1 
    72  168  166 1 
    73  220  219 1 
    74  321  320 1 
    75  245  244 1 
    76  249  247 1 
    77  320  322 1 
    78  320  317 1 
    79  167  166 1 
    80  247  244 1 
    81  247  248 1 
    82  319  317 1 
    83  114  116 1 
    84  114  111 1 
    85  113  111 1 
    86  166  169 1 
    87  166  163 1 
    88  246  244 1 
    89  244  241 1 
    90  222  219 1 
    91  169  171 1 
    92  169  170 1 
    93  219  221 1 
    94  219  216 1 
    95  317  318 1 
    96  317  314 1 
    97  214  213 1 
    98  111  112 1 
    99  111  108 1 
   100  315  314 1 
   101  164  163 1 
   102  239  238 1 
   103  218  216 1 
   104  163  165 1 
   105  163  160 1 
   106  216  213 1 
   107  216  217 1 
   108  314  316 1 
   109  314  311 1 
   110  383  381 1 
   111  213  215 1 
   112  213  210 1 
   113  240  238 1 
   114  162  160 1 
   115  241  243 1 
   116  241  238 1 
   117  241  242 1 
   118  313  311 1 
   119  109  108 1 
   120  238  235 1 
   121  108  110 1 
   122  108  105 1 
   123  377  375 1 
   124  160  161 1 
   125  160  157 1 
   126  212  210 1 
   127  311  312 1 
   128  311  308 1 
   129  233  232 1 
   130  309  308 1 
   131  106  105 1 
   132  381  384 1 
   133  381  382 1 
   134  381  378 1 
   135  379  378 1 
   136  107  105 1 
   137  210  211 1 
   138  210  207 1 
   139  208  207 1 
   140  156  154 1 
   141  105  103 1 
   142  158  157 1 
   143  371  369 1 
   144  378  375 1 
   145  378  380 1 
   146  375  376 1 
   147  375  372 1 
   148  373  372 1 
   149  292  291 1 
   150  308  310 1 
   151  308  305 1 
   152  235  232 1 
   153  235  237 1 
   154  235  236 1 
   155  157  154 1 
   156  157  159 1 
   157  293  291 1 
   158  207  209 1 
   159  207  204 1 
   160  232  234 1 
   161  232  229 1 
   162  306  305 1 
   163  202  201 1 
   164  154  155 1 
   165  154  151 1 
   166  203  201 1 
   167  152  151 1 
   168  372  369 1 
   169  372  374 1 
   170  291  294 1 
   171  291  288 1 
   172  369  370 1 
   173  369  366 1 
   174  305  307 1 
   175  305  303 1 
   176  286  285 1 
   177  367  366 1 
   178  201  204 1 
   179  201  198 1 
   180  365  363 1 
   181  231  229 1 
   182  103  102 1 
   183  103  104 2 
   184  287  285 1 
   185  151  153 1 
   186  151  148 1 
   187  227  226 1 
   188  204  206 1 
   189  204  205 1 
   190  229  226 1 
   191  229  230 1 
   192  102  100 1 
   193  366  363 1 
   194  366  368 1 
   195  285  288 1 
   196  285  282 1 
   197  196  195 1 
   198  197  195 1 
   199  304  303 2 
   200  288  290 1 
   201  288  289 1 
   202  188  187 2 
   203  303  302 1 
   204  363  364 1 
   205  363  360 1 
   206  281  279 1 
   207  226  228 1 
   208  226  223 1 
   209  195  198 1 
   210  195  192 1 
   211  361  360 1 
   212  198  200 1 
   213  198  199 1 
   214  146  145 1 
   215  359  357 1 
   216  150  148 1 
   217  148  145 1 
   218  148  149 1 
   219   49   47 1 
   220  100  145 1 
   221  100   47 1 
   222  100  101 1 
   223  185  184 1 
   224  225  223 1 
   225  360  357 1 
   226  360  362 1 
   227  283  282 1 
   228  282  279 1 
   229  282  284 1 
   230  190  189 1 
   231   48   47 1 
   232  145  147 1 
   233  279  280 1 
   234  279  276 1 
   235  187  189 1 
   236  187  186 1 
   237  302  300 1 
   238   47   45 1 
   239  223  184 1 
   240  223  224 1 
   241  277  276 1 
   242  355  354 1 
   243  357  354 1 
   244  357  358 1 
   245  275  273 1 
   246   26   24 1 
   247  189  192 1 
   248  189  191 1 
   249  184  186 1 
   250  184  181 1 
   251  192  193 1 
   252  192  194 1 
   253   25   24 1 
   254  180  179 2 
   255  276  273 1 
   256  276  278 1 
   257  274  273 1 
   258  354  356 1 
   259  354  351 1 
   260  301  300 1 
   261   39   38 1 
   262  273  270 1 
   263   37   36 1 
   264   24   36 1 
   265   24   27 1 
   266  300  351 1 
   267  300  297 1 
   268   45   43 1 
   269   45   46 2 
   270  298  297 1 
   271   20   19 2 
   272  179  181 1 
   273  179   52 am
   274   43   42 1 
   275   21   19 1 
   276   36   38 1 
   277   36   32 1 
   278  181  182 1 
   279  181  183 1 
   280  351  352 1 
   281  351  353 1 
   282  268  267 1 
   283   38   40 1 
   284   38   41 1 
   285   27   22 1 
   286  269  267 1 
   287   51   50 1 
   288  297  299 1 
   289  297  295 1 
   290   19   17 1 
   291   19   18 1 
   292  270  267 1 
   293  270  272 1 
   294  270  271 1 
   295  267  264 1 
   296   52   50 1 
   297   52   53 1 
   298   16   15 1 
   299  296  295 2 
   300   33   32 1 
   301   50   42 1 
   302   50    9 1 
   303  295   98 am
   304   42   15 1 
   305   42   44 1 
   306   32   34 1 
   307   32   28 1 
   308   62   61 1 
   309   97   96 1 
   310  263  261 1 
   311   22   18 1 
   312   22   23 1 
   313   22   28 1 
   314   15   17 1 
   315   15    6 1 
   316   65   67 2 
   317   34   35 1 
   318  262  261 1 
   319   98   96 1 
   320   98   99 1 
   321  264  261 1 
   322  264  265 1 
   323  264  266 1 
   324   28   29 1 
   325   28   30 1 
   326   11    9 1 
   327   11   12 1 
   328  261  257 1 
   329   96   61 1 
   330   96   88 1 
   331   61   60 1 
   332   61   63 1 
   333   60   58 1 
   334    9    7 1 
   335    9   10 1 
   336   55   54 1 
   337    7    6 1 
   338   94   93 1 
   339    5    4 1 
   340    6    4 1 
   341    6    8 1 
   342   13   12 1 
   343   12   58 1 
   344   12   14 1 
   345   67   63 1 
   346   67   66 1 
   347   67   64 1 
   348   92   91 2 
   349   91   90 1 
   350   91   93 1 
   351   58   54 1 
   352   58   59 1 
   353   90   88 1 
   354   30   31 1 
   355   54   88 1 
   356   54   56 1 
   357   88   89 1 
   358  257   93 1 
   359  257  258 1 
   360  257  259 1 
   361   93   95 1 
   362    4    1 1 
   363    4    2 1 
   364   64   68 1 
   365   57   56 1 
   366    3    2 1 
   367  260  259 1 
   368   71   70 1 
   369   77   76 1 
   370   68   69 1 
   371   68   73 1 
   372   68   74 1 
   373   73   70 1 
   374   70   72 1 
   375   70   82 1 
   376   79   78 1 
   377   76   74 1 
   378   74   78 1 
   379   74   75 1 
   380   78   82 1 
   381   78   80 1 
   382   83   82 1 
   383   82   84 1 
   384   81   80 1 
   385   86   84 1 
   386   84   85 1 
   387   84   87 1 
