@<TRIPOS>MOLECULE
C:\Users\Praveer\PycharmProjects\pdb_to_mol2_converter\data\pdb\stlipa.pdb
  344   345     0     0     0
SMALL
GASTEIGER

@<TRIPOS>ATOM
      1 HB6S       -7.9600    2.3300    0.9330 H         1 STL1        0.0000
      2 OB6        -6.7910    0.8310    1.8100 O.3       1 STL1        0.0000
      3 HOB6       -5.9740    0.3750    1.5760 H         1 STL1        0.0000
      4 CB6        -7.0900    1.6750    0.6920 C.3       1 STL1        0.0000
      5 HB6R       -7.3840    1.0540   -0.1840 H         1 STL1        0.0000
      6 CB5        -5.8900    2.5240    0.3270 C.3       1 STL1        0.0000
      7 OB5        -4.7430    1.6720    0.1640 O.3       1 STL1        0.0000
      8 HB5        -5.7190    3.2340    1.1720 H         1 STL1        0.0000
      9 CB1        -3.5530    2.4450    0.0100 C.3       1 STL1        0.0000
     10 HB1        -3.4150    3.1140    0.8900 H         1 STL1        0.0000
     11 OA6        -2.4260    1.6320   -0.1510 O.3       1 STL1        0.0000
     12 CA6        -2.1420    0.8430    1.0010 C.3       1 STL1        0.0000
     13 HA6R       -2.5770   -0.1730    0.8720 H         1 STL1        0.0000
     14 HA6S       -2.5830    1.3010    1.9150 H         1 STL1        0.0000
     15 CB4        -6.0490    3.3000   -0.9620 C.3       1 STL1        0.0000
     16 HB4        -6.1620    2.5620   -1.7950 H         1 STL1        0.0000
     17 OB4        -7.1840    4.1380   -0.7990 O.3       1 STL1        0.0000
     18 PB         -8.4450    4.1460   -1.8690 P.3       1 STL1        0.0000
     19 OPB4       -8.5070    5.5920   -2.3430 O.3       1 STL1        0.0000
     20 OPB3       -9.6410    3.6980   -1.0400 O.3       1 STL1        0.0000
     21 OPB2       -8.0840    3.1770   -2.9870 O.2       1 STL1        0.0000
     22 CB3        -4.8260    4.1420   -1.2270 C.3       1 STL1        0.0000
     23 OB3        -4.9390    4.7350   -2.5100 O.3       1 STL1        0.0000
     24 HB3        -4.7020    4.8930   -0.4070 H         1 STL1        0.0000
     25 C71        -5.4590    5.9660   -2.5560 C.2       1 STL1        0.0000
     26 O71        -5.1750    6.8440   -1.7510 O.2       1 STL1        0.0000
     27 C72        -5.6940    6.2070   -4.0370 C.3       1 STL1        0.0000
     28 H72R       -6.7090    5.7980   -4.2460 H         1 STL1        0.0000
     29 H72S       -4.9540    5.6300   -4.6300 H         1 STL1        0.0000
     30 CB2        -3.5980    3.2720   -1.2530 C.3       1 STL1        0.0000
     31 HB2        -3.7090    2.5580   -2.1110 H         1 STL1        0.0000
     32 NB2        -2.3710    4.0480   -1.4160 N.am      1 STL1        0.0000
     33 HNB2       -2.0380    4.4950   -0.5990 H         1 STL1        0.0000
     34 CA4         0.0340    2.1350    1.1710 C.3       1 STL1        0.0000
     35 HA4        -0.2470    2.6830    0.2420 H         1 STL1        0.0000
     36 OA4        -0.4480    2.8830    2.2840 O.3       1 STL1        0.0000
     37 HOA4       -0.1880    3.8020    2.1110 H         1 STL1        0.0000
     38 CA5        -0.6320    0.7650    1.1190 C.3       1 STL1        0.0000
     39 HA5        -0.3800    0.1900    2.0380 H         1 STL1        0.0000
     40 OA5        -0.1570    0.0260   -0.0150 O.3       1 STL1        0.0000
     41 CA1         1.2630   -0.1790   -0.0180 C.3       1 STL1        0.0000
     42 HA1         1.4640   -0.6750   -1.0010 H         1 STL1        0.0000
     43 OA1         1.6450   -1.0120    1.0620 O.3       1 STL1        0.0000
     44 OPA2        2.7850   -2.9980    2.0910 O.3       1 STL1        0.0000
     45 OPA3        2.5480   -2.8260   -0.4480 O.2       1 STL1        0.0000
     46 OPA4        4.1260   -1.2650    0.7810 O.3       1 STL1        0.0000
     47 PA          2.8590   -2.1090    0.8610 P.3       1 STL1        0.0000
     48 CA3         1.5480    1.9930    1.1770 C.3       1 STL1        0.0000
     49 HA3         1.8060    1.3920    2.0840 H         1 STL1        0.0000
     50 OA3         2.3900    3.1510    1.2090 O.3       1 STL1        0.0000
     51 C31         2.0160    4.3960    1.0890 C.2       1 STL1        0.0000
     52 O31         0.8790    4.8330    1.0790 O.2       1 STL1        0.0000
     53 C32         3.2730    5.2410    1.2860 C.3       1 STL1        0.0000
     54 H32R        3.9940    4.9730    0.4860 H         1 STL1        0.0000
     55 H32S        3.7190    4.9660    2.2640 H         1 STL1        0.0000
     56 CA2         1.9450    1.1700   -0.0340 C.3       1 STL1        0.0000
     57 HA2         1.5140    1.6850   -0.9330 H         1 STL1        0.0000
     58 NA2         3.3630    1.0150   -0.2610 N.am      1 STL1        0.0000
     59 HNA2        3.7180    0.1220    0.1040 H         1 STL1        0.0000
     60 C73        -5.6380    7.6850   -4.4350 C.3       1 STL1        0.0000
     61 H73R       -6.3850    8.2620   -3.8360 H         1 STL1        0.0000
     62 O73        -5.9270    7.6690   -5.8330 O.3       1 STL1        0.0000
     63 C81        -7.1710    7.9580   -6.1720 C.2       1 STL1        0.0000
     64 O81        -7.9570    8.6110   -5.5140 O.2       1 STL1        0.0000
     65 C82        -7.3730    7.6770   -7.6730 C.3       1 STL1        0.0000
     66 H82R       -7.9390    8.5500   -8.0560 H         1 STL1        0.0000
     67 H82S       -8.0210    6.7810   -7.7640 H         1 STL1        0.0000
     68 C83        -6.0870    7.4890   -8.5210 C.3       1 STL1        0.0000
     69 H83R       -5.9130    6.4030   -8.6890 H         1 STL1        0.0000
     70 H83S       -5.1940    7.8890   -7.9900 H         1 STL1        0.0000
     71 C84        -6.1530    8.2400   -9.8580 C.3       1 STL1        0.0000
     72 H84R       -6.3030    9.3210   -9.6260 H         1 STL1        0.0000
     73 H84S       -7.0280    7.8970  -10.4530 H         1 STL1        0.0000
     74 C85        -4.8660    8.0900  -10.6880 C.3       1 STL1        0.0000
     75 H85R       -5.0290    7.3250  -11.4790 H         1 STL1        0.0000
     76 H85S       -4.0450    7.7200  -10.0330 H         1 STL1        0.0000
     77 C86        -4.4190    9.4130  -11.3230 C.3       1 STL1        0.0000
     78 H86R       -4.1740   10.1380  -10.5130 H         1 STL1        0.0000
     79 H86S       -5.2670    9.8320  -11.9080 H         1 STL1        0.0000
     80 C87        -3.1950    9.2750  -12.2420 C.3       1 STL1        0.0000
     81 H87R       -3.3430    8.4180  -12.9370 H         1 STL1        0.0000
     82 H87S       -2.3050    9.0520  -11.6130 H         1 STL1        0.0000
     83 C88        -2.9480   10.5480  -13.0690 C.3       1 STL1        0.0000
     84 H88R       -3.3320   11.4260  -12.5010 H         1 STL1        0.0000
     85 H88S       -3.5390   10.4790  -14.0100 H         1 STL1        0.0000
     86 C89        -1.4730   10.8280  -13.4050 C.3       1 STL1        0.0000
     87 H89R       -0.9290   11.0850  -12.4690 H         1 STL1        0.0000
     88 H89S       -1.4400   11.7220  -14.0680 H         1 STL1        0.0000
     89 C810       -0.7460    9.6680  -14.0990 C.3       1 STL1        0.0000
     90 H810       -1.3860    9.2810  -14.9240 H         1 STL1        0.0000
     91 H810       -0.5900    8.8400  -13.3720 H         1 STL1        0.0000
     92 C811        0.6090   10.0880  -14.6900 C.3       1 STL1        0.0000
     93 H811        1.2400   10.5520  -13.9000 H         1 STL1        0.0000
     94 H811        0.4250   10.8580  -15.4730 H         1 STL1        0.0000
     95 C812        1.3610    8.9090  -15.3240 C.3       1 STL1        0.0000
     96 H812        0.6590    8.3710  -16.0000 H         1 STL1        0.0000
     97 H812        1.6750    8.1970  -14.5300 H         1 STL1        0.0000
     98 C813        2.5840    9.3360  -16.1480 C.3       1 STL1        0.0000
     99 H813        3.3760    9.7180  -15.4650 H         1 STL1        0.0000
    100 H813        2.2900   10.1760  -16.8180 H         1 STL1        0.0000
    101 C814        3.1470    8.2040  -17.0100 C.3       1 STL1        0.0000
    102 H814        2.3630    7.8190  -17.6980 H         1 STL1        0.0000
    103 H814        3.4960    7.3630  -16.3740 H         1 STL1        0.0000
    104 H814        4.0000    8.5680  -17.6230 H         1 STL1        0.0000
    105 C74        -4.2480    8.3520   -4.2630 C.3       1 STL1        0.0000
    106 H74R       -3.4910    7.7790   -4.8400 H         1 STL1        0.0000
    107 H74S       -3.9560    8.2990   -3.1930 H         1 STL1        0.0000
    108 C75        -4.2270    9.8380   -4.6840 C.3       1 STL1        0.0000
    109 H75R       -3.7160   10.4490   -3.9060 H         1 STL1        0.0000
    110 H75S       -5.2840   10.1860   -4.7330 H         1 STL1        0.0000
    111 C76        -3.5410   10.0860   -6.0370 C.3       1 STL1        0.0000
    112 H76R       -3.7050    9.2020   -6.6950 H         1 STL1        0.0000
    113 H76S       -2.4450   10.1640   -5.8650 H         1 STL1        0.0000
    114 C77        -4.0540   11.3380   -6.7740 C.3       1 STL1        0.0000
    115 H77R       -4.7770   11.8930   -6.1390 H         1 STL1        0.0000
    116 H77S       -4.6050   10.9960   -7.6790 H         1 STL1        0.0000
    117 C78        -2.9300   12.2900   -7.2090 C.3       1 STL1        0.0000
    118 H78R       -2.1400   11.6590   -7.6740 H         1 STL1        0.0000
    119 H78S       -2.4870   12.7890   -6.3190 H         1 STL1        0.0000
    120 C79        -3.3620   13.3360   -8.2530 C.3       1 STL1        0.0000
    121 H79R       -3.8110   14.2230   -7.7560 H         1 STL1        0.0000
    122 H79S       -4.1430   12.8790   -8.9020 H         1 STL1        0.0000
    123 C710       -2.1890   13.7460   -9.1580 C.3       1 STL1        0.0000
    124 H710       -1.7210   12.7980   -9.5160 H         1 STL1        0.0000
    125 H710       -1.4200   14.3000   -8.5790 H         1 STL1        0.0000
    126 C711       -2.5820   14.5320  -10.4170 C.3       1 STL1        0.0000
    127 H711       -3.5640   14.1790  -10.7990 H         1 STL1        0.0000
    128 H711       -1.8250   14.3050  -11.2020 H         1 STL1        0.0000
    129 C712       -2.6010   16.0570  -10.2420 C.3       1 STL1        0.0000
    130 H712       -1.7200   16.3840   -9.6460 H         1 STL1        0.0000
    131 H712       -3.5190   16.3430   -9.6820 H         1 STL1        0.0000
    132 C713       -2.5630   16.7790  -11.5970 C.3       1 STL1        0.0000
    133 H713       -3.0820   16.1440  -12.3510 H         1 STL1        0.0000
    134 H713       -1.5010   16.8730  -11.9210 H         1 STL1        0.0000
    135 C714       -3.2250   18.1580  -11.5940 C.3       1 STL1        0.0000
    136 H714       -2.7550   18.8250  -10.8410 H         1 STL1        0.0000
    137 H714       -4.3060   18.0610  -11.3550 H         1 STL1        0.0000
    138 H714       -3.1310   18.6330  -12.5950 H         1 STL1        0.0000
    139 C51        -1.5860    4.0430   -2.5040 C.2       1 STL1        0.0000
    140 O51        -1.9300    3.6140   -3.5960 O.2       1 STL1        0.0000
    141 C52        -0.1840    4.5570   -2.2760 C.3       1 STL1        0.0000
    142 H52R        0.4320    3.7040   -1.9140 H         1 STL1        0.0000
    143 H52S       -0.1900    5.3460   -1.4990 H         1 STL1        0.0000
    144 C53         0.4400    5.1000   -3.5690 C.3       1 STL1        0.0000
    145 H53R        0.3380    4.3260   -4.3710 H         1 STL1        0.0000
    146 O53         1.8100    5.3630   -3.2310 O.3       1 STL1        0.0000
    147 C61         2.7030    4.9780   -4.1440 C.2       1 STL1        0.0000
    148 O61         2.4440    4.6070   -5.2710 O.2       1 STL1        0.0000
    149 C62         4.1070    5.3190   -3.6480 C.3       1 STL1        0.0000
    150 H62R        4.8310    4.8030   -4.3090 H         1 STL1        0.0000
    151 H62S        4.2060    4.9070   -2.6230 H         1 STL1        0.0000
    152 C63         4.3880    6.8340   -3.6090 C.3       1 STL1        0.0000
    153 H63R        5.3540    6.9930   -3.0740 H         1 STL1        0.0000
    154 H63S        3.5970    7.3500   -3.0250 H         1 STL1        0.0000
    155 C64         4.5010    7.4840   -4.9920 C.3       1 STL1        0.0000
    156 H64R        3.5760    7.3050   -5.5820 H         1 STL1        0.0000
    157 H64S        5.3440    7.0200   -5.5510 H         1 STL1        0.0000
    158 C65         4.7340    8.9910   -4.8510 C.3       1 STL1        0.0000
    159 H65R        5.6430    9.1460   -4.2260 H         1 STL1        0.0000
    160 H65S        3.8710    9.4430   -4.3130 H         1 STL1        0.0000
    161 C66         4.9310    9.7230   -6.1820 C.3       1 STL1        0.0000
    162 H66R        4.0390    9.5960   -6.8340 H         1 STL1        0.0000
    163 H66S        5.7990    9.2590   -6.7010 H         1 STL1        0.0000
    164 C67         5.2010   11.2180   -5.9560 C.3       1 STL1        0.0000
    165 H67R        5.8210   11.3160   -5.0340 H         1 STL1        0.0000
    166 H67S        4.2420   11.7500   -5.7680 H         1 STL1        0.0000
    167 C68         5.9740   11.8800   -7.1010 C.3       1 STL1        0.0000
    168 H68R        6.2910   11.1080   -7.8370 H         1 STL1        0.0000
    169 H68S        6.8950   12.3480   -6.6810 H         1 STL1        0.0000
    170 C69         5.1940   12.9720   -7.8380 C.3       1 STL1        0.0000
    171 H69R        4.9540   13.7800   -7.1120 H         1 STL1        0.0000
    172 H69S        4.2350   12.5610   -8.2220 H         1 STL1        0.0000
    173 C610        6.0130   13.5540   -8.9970 C.3       1 STL1        0.0000
    174 H610        5.6600   13.1060   -9.9510 H         1 STL1        0.0000
    175 H610        7.0820   13.2660   -8.8700 H         1 STL1        0.0000
    176 C611        5.9570   15.0830   -9.0830 C.3       1 STL1        0.0000
    177 H611        6.3050   15.5090   -8.1140 H         1 STL1        0.0000
    178 H611        4.9000   15.4030   -9.2270 H         1 STL1        0.0000
    179 C612        6.8260   15.6410  -10.2130 C.3       1 STL1        0.0000
    180 H612        6.5160   15.2110  -11.1900 H         1 STL1        0.0000
    181 H612        7.8930   15.3840  -10.0440 H         1 STL1        0.0000
    182 H612        6.7400   16.7470  -10.2630 H         1 STL1        0.0000
    183 C54        -0.2350    6.4120   -4.0490 C.3       1 STL1        0.0000
    184 H54R       -0.3060    7.1180   -3.1940 H         1 STL1        0.0000
    185 H54S       -1.2680    6.1700   -4.3860 H         1 STL1        0.0000
    186 C55         0.5170    7.0900   -5.2050 C.3       1 STL1        0.0000
    187 H55R        0.6930    6.3330   -6.0050 H         1 STL1        0.0000
    188 H55S        1.5090    7.4290   -4.8300 H         1 STL1        0.0000
    189 C56        -0.1840    8.2940   -5.8370 C.3       1 STL1        0.0000
    190 H56R       -0.2740    9.1040   -5.0870 H         1 STL1        0.0000
    191 H56S       -1.2160    8.0150   -6.1440 H         1 STL1        0.0000
    192 C57         0.6010    8.7840   -7.0630 C.3       1 STL1        0.0000
    193 H57R        0.1530    8.3140   -7.9680 H         1 STL1        0.0000
    194 H57S        1.6550    8.4270   -6.9980 H         1 STL1        0.0000
    195 C58         0.6440   10.3060   -7.2330 C.3       1 STL1        0.0000
    196 H58R        1.4010   10.7330   -6.5360 H         1 STL1        0.0000
    197 H58S       -0.3420   10.7420   -6.9690 H         1 STL1        0.0000
    198 C59         0.9990   10.6770   -8.6780 C.3       1 STL1        0.0000
    199 H59R        0.1670   10.3490   -9.3420 H         1 STL1        0.0000
    200 H59S        1.9130   10.1160   -8.9770 H         1 STL1        0.0000
    201 C510        1.2450   12.1730   -8.8960 C.3       1 STL1        0.0000
    202 H510        1.9990   12.5440   -8.1690 H         1 STL1        0.0000
    203 H510        0.3030   12.7230   -8.6960 H         1 STL1        0.0000
    204 C511        1.7270   12.4650  -10.3250 C.3       1 STL1        0.0000
    205 H511        1.2320   11.7590  -11.0310 H         1 STL1        0.0000
    206 H511        2.8220   12.2790  -10.3800 H         1 STL1        0.0000
    207 C512        1.4040   13.8920  -10.7860 C.3       1 STL1        0.0000
    208 H512        1.6640   14.6200   -9.9870 H         1 STL1        0.0000
    209 H512        0.3060   13.9560  -10.9530 H         1 STL1        0.0000
    210 C513        2.1270   14.2860  -12.0800 C.3       1 STL1        0.0000
    211 H513        1.5000   15.0240  -12.6310 H         1 STL1        0.0000
    212 H513        2.2330   13.3890  -12.7310 H         1 STL1        0.0000
    213 C514        3.4990   14.9140  -11.8290 C.3       1 STL1        0.0000
    214 H514        4.1440   14.2120  -11.2590 H         1 STL1        0.0000
    215 H514        3.3920   15.8470  -11.2330 H         1 STL1        0.0000
    216 H514        4.0040   15.1640  -12.7850 H         1 STL1        0.0000
    217 C33         2.9970    6.7530    1.2530 C.3       1 STL1        0.0000
    218 H33R        3.9500    7.2830    1.4900 H         1 STL1        0.0000
    219 O33         2.0650    7.0870    2.2690 O.3       1 STL1        0.0000
    220 HO33        1.2070    6.6750    2.1420 H         1 STL1        0.0000
    221 C34         2.4980    7.2710   -0.1080 C.3       1 STL1        0.0000
    222 H34R        1.5170    6.8130   -0.3560 H         1 STL1        0.0000
    223 H34S        3.2250    6.9370   -0.8800 H         1 STL1        0.0000
    224 C35         2.3540    8.8010   -0.1900 C.3       1 STL1        0.0000
    225 H35R        3.2850    9.2930    0.1720 H         1 STL1        0.0000
    226 H35S        1.5290    9.1130    0.4920 H         1 STL1        0.0000
    227 C36         2.0460    9.2780   -1.6160 C.3       1 STL1        0.0000
    228 H36R        1.7150    8.4040   -2.2240 H         1 STL1        0.0000
    229 H36S        2.9730    9.6790   -2.0830 H         1 STL1        0.0000
    230 C37         0.9330   10.3310   -1.6730 C.3       1 STL1        0.0000
    231 H37R        1.2200   11.2120   -1.0600 H         1 STL1        0.0000
    232 H37S        0.0180    9.8940   -1.2100 H         1 STL1        0.0000
    233 C38         0.5940   10.7580   -3.1090 C.3       1 STL1        0.0000
    234 H38R       -0.5010   10.6230   -3.2610 H         1 STL1        0.0000
    235 H38S        1.1140   10.0860   -3.8280 H         1 STL1        0.0000
    236 C39         0.9630   12.2120   -3.4290 C.3       1 STL1        0.0000
    237 H39R        1.9280   12.2330   -3.9850 H         1 STL1        0.0000
    238 H39S        1.1120   12.7770   -2.4830 H         1 STL1        0.0000
    239 C310       -0.1110   12.9500   -4.2430 C.3       1 STL1        0.0000
    240 H310       -1.1060   12.8310   -3.7590 H         1 STL1        0.0000
    241 H310       -0.1670   12.4880   -5.2530 H         1 STL1        0.0000
    242 C311        0.2150   14.4460   -4.3610 C.3       1 STL1        0.0000
    243 H311        1.3240   14.5500   -4.3860 H         1 STL1        0.0000
    244 H311       -0.1390   14.9750   -3.4480 H         1 STL1        0.0000
    245 C312       -0.3390   15.1190   -5.6250 C.3       1 STL1        0.0000
    246 H312       -0.7330   14.3530   -6.3270 H         1 STL1        0.0000
    247 H312        0.5070   15.6310   -6.1400 H         1 STL1        0.0000
    248 C313       -1.4190   16.1710   -5.3430 C.3       1 STL1        0.0000
    249 H313       -1.0260   16.8880   -4.5870 H         1 STL1        0.0000
    250 H313       -2.3140   15.6750   -4.9050 H         1 STL1        0.0000
    251 C314       -1.8230   16.9510   -6.5970 C.3       1 STL1        0.0000
    252 H314       -2.3590   16.2880   -7.3090 H         1 STL1        0.0000
    253 H314       -0.9210   17.3570   -7.1050 H         1 STL1        0.0000
    254 H314       -2.4880   17.8010   -6.3370 H         1 STL1        0.0000
    255 C11         4.0530    1.6800   -1.1710 C.2       1 STL1        0.0000
    256 O11         3.8380    2.8730   -1.4020 O.2       1 STL1        0.0000
    257 C12         5.0310    0.8600   -1.9900 C.3       1 STL1        0.0000
    258 H12R        4.4150    0.1400   -2.5710 H         1 STL1        0.0000
    259 H12S        5.6760    0.2670   -1.3080 H         1 STL1        0.0000
    260 C13         5.8530    1.7370   -2.9540 C.3       1 STL1        0.0000
    261 H13R        5.2970    2.6750   -3.1940 H         1 STL1        0.0000
    262 O13         6.1450    0.9540   -4.1270 O.3       1 STL1        0.0000
    263 C21         5.6640    1.4420   -5.2680 C.2       1 STL1        0.0000
    264 O21         5.0330    2.4750   -5.3930 O.2       1 STL1        0.0000
    265 C22         6.0600    0.5480   -6.4440 C.3       1 STL1        0.0000
    266 H22S        5.1620    0.4300   -7.0850 H         1 STL1        0.0000
    267 H22R        6.3340   -0.4500   -6.0420 H         1 STL1        0.0000
    268 C23         7.2350    1.1190   -7.2790 C.3       1 STL1        0.0000
    269 H23R        7.5780    0.3120   -7.9690 H         1 STL1        0.0000
    270 H23S        8.0920    1.3710   -6.6170 H         1 STL1        0.0000
    271 C24         6.8860    2.3380   -8.1550 C.3       1 STL1        0.0000
    272 H24R        6.5900    3.1950   -7.5090 H         1 STL1        0.0000
    273 H24S        6.0170    2.0910   -8.8040 H         1 STL1        0.0000
    274 C25         8.0750    2.7490   -9.0420 C.3       1 STL1        0.0000
    275 H25R        8.4390    1.8460   -9.5850 H         1 STL1        0.0000
    276 H25S        8.9020    3.1080   -8.3900 H         1 STL1        0.0000
    277 C26         7.7530    3.8260  -10.0900 C.3       1 STL1        0.0000
    278 H26R        7.3490    4.7330   -9.5890 H         1 STL1        0.0000
    279 H26S        6.9630    3.4360  -10.7700 H         1 STL1        0.0000
    280 C27         8.9910    4.2150  -10.9190 C.3       1 STL1        0.0000
    281 H27R        9.5750    3.3000  -11.1660 H         1 STL1        0.0000
    282 H27S        9.6400    4.8620  -10.2870 H         1 STL1        0.0000
    283 C28         8.6550    4.9430  -12.2310 C.3       1 STL1        0.0000
    284 H28R        7.6530    5.4190  -12.1450 H         1 STL1        0.0000
    285 H28S        8.6010    4.1930  -13.0520 H         1 STL1        0.0000
    286 C29         9.6780    6.0290  -12.6010 C.3       1 STL1        0.0000
    287 H29R       10.6940    5.5750  -12.6300 H         1 STL1        0.0000
    288 H29S        9.6800    6.8120  -11.8100 H         1 STL1        0.0000
    289 C210        9.3840    6.6860  -13.9580 C.3       1 STL1        0.0000
    290 H210        8.4380    7.2660  -13.8850 H         1 STL1        0.0000
    291 H210        9.2360    5.8900  -14.7220 H         1 STL1        0.0000
    292 C211       10.5170    7.6070  -14.4340 C.3       1 STL1        0.0000
    293 H211       11.4220    6.9850  -14.6220 H         1 STL1        0.0000
    294 H211       10.7710    8.3370  -13.6320 H         1 STL1        0.0000
    295 C212       10.1640    8.3800  -15.7140 C.3       1 STL1        0.0000
    296 H212        9.4330    9.1800  -15.4590 H         1 STL1        0.0000
    297 H212        9.6720    7.6950  -16.4400 H         1 STL1        0.0000
    298 C213       11.3960    9.0020  -16.3880 C.3       1 STL1        0.0000
    299 H213       11.9990    8.1870  -16.8490 H         1 STL1        0.0000
    300 H213       12.0290    9.4950  -15.6170 H         1 STL1        0.0000
    301 C214       11.0360   10.0390  -17.4610 C.3       1 STL1        0.0000
    302 H214       10.5810   10.9250  -16.9630 H         1 STL1        0.0000
    303 H214       10.2750    9.6130  -18.1520 H         1 STL1        0.0000
    304 C215       12.2530   10.4890  -18.2800 C.3       1 STL1        0.0000
    305 H215       12.6210    9.6210  -18.8740 H         1 STL1        0.0000
    306 H215       13.0700   10.7840  -17.5820 H         1 STL1        0.0000
    307 C216       11.9550   11.6590  -19.2220 C.3       1 STL1        0.0000
    308 H216       11.6800   12.5640  -18.6390 H         1 STL1        0.0000
    309 H216       11.1100   11.4080  -19.8990 H         1 STL1        0.0000
    310 H216       12.8450   11.8990  -19.8420 H         1 STL1        0.0000
    311 C14         7.1890    2.1430   -2.2910 C.3       1 STL1        0.0000
    312 H14R        7.6590    1.2190   -1.8880 H         1 STL1        0.0000
    313 H14S        6.9620    2.8030   -1.4250 H         1 STL1        0.0000
    314 C15         8.2120    2.8390   -3.2070 C.3       1 STL1        0.0000
    315 H15R        8.5710    2.1220   -3.9790 H         1 STL1        0.0000
    316 H15S        9.0890    3.1180   -2.5790 H         1 STL1        0.0000
    317 C16         7.6820    4.1000   -3.9000 C.3       1 STL1        0.0000
    318 H16R        7.0380    4.6750   -3.1980 H         1 STL1        0.0000
    319 H16S        7.0560    3.8130   -4.7720 H         1 STL1        0.0000
    320 C17         8.8140    5.0070   -4.3910 C.3       1 STL1        0.0000
    321 H17R        9.5320    4.4010   -4.9880 H         1 STL1        0.0000
    322 H17S        9.3560    5.4100   -3.5070 H         1 STL1        0.0000
    323 C18         8.3100    6.1710   -5.2500 C.3       1 STL1        0.0000
    324 H18R        7.5630    6.7590   -4.6720 H         1 STL1        0.0000
    325 H18S        7.7990    5.7690   -6.1540 H         1 STL1        0.0000
    326 C19         9.4540    7.0980   -5.6750 C.3       1 STL1        0.0000
    327 H19R       10.1890    6.5280   -6.2840 H         1 STL1        0.0000
    328 H19S        9.9770    7.4520   -4.7570 H         1 STL1        0.0000
    329 C110        8.9660    8.3150   -6.4670 C.3       1 STL1        0.0000
    330 H110        8.1400    8.7960   -5.8950 H         1 STL1        0.0000
    331 H110        8.5530    7.9920   -7.4480 H         1 STL1        0.0000
    332 C111       10.0810    9.3450   -6.6860 C.3       1 STL1        0.0000
    333 H111       10.8860    8.9080   -7.3170 H         1 STL1        0.0000
    334 H111       10.5240    9.5990   -5.6970 H         1 STL1        0.0000
    335 C112        9.5700   10.6360   -7.3310 C.3       1 STL1        0.0000
    336 H112        8.6870   10.9840   -6.7490 H         1 STL1        0.0000
    337 H112        9.2350   10.4230   -8.3700 H         1 STL1        0.0000
    338 C113       10.6240   11.7500   -7.3420 C.3       1 STL1        0.0000
    339 H113       11.5180   11.4030   -7.9080 H         1 STL1        0.0000
    340 H113       10.9420   11.9410   -6.2910 H         1 STL1        0.0000
    341 C114       10.1130   13.0560   -7.9530 C.3       1 STL1        0.0000
    342 H114        9.2090   13.4030   -7.4100 H         1 STL1        0.0000
    343 H114        9.8460   12.9050   -9.0210 H         1 STL1        0.0000
    344 H114       10.8840   13.8540   -7.8890 H         1 STL1        0.0000
@<TRIPOS>BOND
     1  309  307 1 
     2  310  307 1 
     3  307  308 1 
     4  307  304 1 
     5  305  304 1 
     6  304  306 1 
     7  304  301 1 
     8  303  301 1 
     9  102  101 1 
    10  104  101 1 
    11  301  302 1 
    12  301  298 1 
    13  101  103 1 
    14  101   98 1 
    15  299  298 1 
    16  100   98 1 
    17  297  295 1 
    18  298  295 1 
    19  298  300 1 
    20   98   99 1 
    21   98   95 1 
    22   96   95 1 
    23  295  296 1 
    24  295  292 1 
    25   94   92 1 
    26   95   92 1 
    27   95   97 1 
    28   90   89 1 
    29  291  289 1 
    30   92   89 1 
    31   92   93 1 
    32  293  292 1 
    33  292  289 1 
    34  292  294 1 
    35   89   86 1 
    36   89   91 1 
    37   88   86 1 
    38   85   83 1 
    39  289  290 1 
    40  289  286 1 
    41   86   83 1 
    42   86   87 1 
    43   83   84 1 
    44   83   80 1 
    45  285  283 1 
    46   81   80 1 
    47  216  213 1 
    48  212  210 1 
    49  211  210 1 
    50  287  286 1 
    51  286  283 1 
    52  286  288 1 
    53  138  135 1 
    54  133  132 1 
    55   80   82 1 
    56   80   77 1 
    57  283  284 1 
    58  283  280 1 
    59  210  213 1 
    60  210  207 1 
    61  134  132 1 
    62   79   77 1 
    63  213  214 1 
    64  213  215 1 
    65  132  135 1 
    66  132  129 1 
    67  135  137 1 
    68  135  136 1 
    69   75   74 1 
    70   77   74 1 
    71   77   78 1 
    72  128  126 1 
    73  180  179 1 
    74  281  280 1 
    75  205  204 1 
    76  209  207 1 
    77  280  282 1 
    78  280  277 1 
    79  127  126 1 
    80  207  204 1 
    81  207  208 1 
    82  279  277 1 
    83   74   76 1 
    84   74   71 1 
    85   73   71 1 
    86  126  129 1 
    87  126  123 1 
    88  206  204 1 
    89  204  201 1 
    90  182  179 1 
    91  129  131 1 
    92  129  130 1 
    93  179  181 1 
    94  179  176 1 
    95  277  278 1 
    96  277  274 1 
    97  174  173 1 
    98   71   72 1 
    99   71   68 1 
   100  275  274 1 
   101  124  123 1 
   102  199  198 1 
   103  178  176 1 
   104  123  125 1 
   105  123  120 1 
   106  176  173 1 
   107  176  177 1 
   108  274  276 1 
   109  274  271 1 
   110  343  341 1 
   111  173  175 1 
   112  173  170 1 
   113  200  198 1 
   114  122  120 1 
   115  201  203 1 
   116  201  198 1 
   117  201  202 1 
   118  273  271 1 
   119   69   68 1 
   120  198  195 1 
   121   68   70 1 
   122   68   65 1 
   123  337  335 1 
   124  120  121 1 
   125  120  117 1 
   126  172  170 1 
   127  271  272 1 
   128  271  268 1 
   129   66   65 1 
   130  269  268 1 
   131  193  192 1 
   132  341  344 1 
   133  341  342 1 
   134  341  338 1 
   135  339  338 1 
   136  170  171 1 
   137  170  167 1 
   138  168  167 1 
   139   67   65 1 
   140  116  114 1 
   141  118  117 1 
   142   65   63 1 
   143  331  329 1 
   144  338  335 1 
   145  338  340 1 
   146  335  336 1 
   147  335  332 1 
   148  333  332 1 
   149  252  251 1 
   150  268  270 1 
   151  268  265 1 
   152  195  192 1 
   153  195  197 1 
   154  195  196 1 
   155  117  114 1 
   156  117  119 1 
   157  253  251 1 
   158  167  169 1 
   159  167  164 1 
   160  266  265 1 
   161  192  194 1 
   162  192  189 1 
   163  162  161 1 
   164  114  115 1 
   165  114  111 1 
   166  163  161 1 
   167  112  111 1 
   168  332  329 1 
   169  332  334 1 
   170  251  254 1 
   171  251  248 1 
   172  329  330 1 
   173  329  326 1 
   174  265  267 1 
   175  265  263 1 
   176  246  245 1 
   177  327  326 1 
   178  161  164 1 
   179  161  158 1 
   180   63   62 1 
   181   63   64 2 
   182  325  323 1 
   183  191  189 1 
   184  247  245 1 
   185  111  113 1 
   186  111  108 1 
   187  187  186 1 
   188  164  166 1 
   189  164  165 1 
   190  189  186 1 
   191  189  190 1 
   192   62   60 1 
   193  326  323 1 
   194  326  328 1 
   195  245  248 1 
   196  245  242 1 
   197  156  155 1 
   198  157  155 1 
   199  264  263 2 
   200  248  250 1 
   201  248  249 1 
   202  148  147 2 
   203  263  262 1 
   204  241  239 1 
   205  323  324 1 
   206  323  320 1 
   207  186  188 1 
   208  186  183 1 
   209  155  158 1 
   210  155  152 1 
   211  321  320 1 
   212  158  160 1 
   213  158  159 1 
   214  106  105 1 
   215  319  317 1 
   216  110  108 1 
   217  108  105 1 
   218  108  109 1 
   219   29   27 1 
   220   60  105 1 
   221   60   27 1 
   222   60   61 1 
   223  320  317 1 
   224  320  322 1 
   225  243  242 1 
   226  185  183 1 
   227  145  144 1 
   228  242  239 1 
   229  242  244 1 
   230  150  149 1 
   231  105  107 1 
   232   28   27 1 
   233  239  240 1 
   234  239  236 1 
   235  147  149 1 
   236  147  146 1 
   237  262  260 1 
   238  183  144 1 
   239  183  184 1 
   240   27   25 1 
   241  237  236 1 
   242  315  314 1 
   243  317  314 1 
   244  317  318 1 
   245  235  233 1 
   246  149  152 1 
   247  149  151 1 
   248  152  153 1 
   249  152  154 1 
   250  140  139 2 
   251  144  146 1 
   252  144  141 1 
   253  236  233 1 
   254  236  238 1 
   255  234  233 1 
   256  314  316 1 
   257  314  311 1 
   258  261  260 1 
   259  233  230 1 
   260   21   18 2 
   261  260  311 1 
   262  260  257 1 
   263  258  257 1 
   264   25   23 1 
   265   25   26 2 
   266   23   22 1 
   267  139  141 1 
   268  139   32 am
   269   19   18 1 
   270  311  312 1 
   271  311  313 1 
   272  141  142 1 
   273  141  143 1 
   274  228  227 1 
   275   31   30 1 
   276  229  227 1 
   277  257  259 1 
   278  257  255 1 
   279   18   20 1 
   280   18   17 1 
   281   16   15 1 
   282  230  227 1 
   283  230  232 1 
   284  230  231 1 
   285  227  224 1 
   286   32   30 1 
   287   32   33 1 
   288  256  255 2 
   289   30   22 1 
   290   30    9 1 
   291   22   15 1 
   292   22   24 1 
   293  255   58 am
   294   42   41 1 
   295   15   17 1 
   296   15    6 1 
   297   57   56 1 
   298  223  221 1 
   299   45   47 2 
   300  222  221 1 
   301   58   56 1 
   302   58   59 1 
   303  224  221 1 
   304  224  225 1 
   305  224  226 1 
   306    5    4 1 
   307   11    9 1 
   308   11   12 1 
   309  221  217 1 
   310   56   41 1 
   311   56   48 1 
   312   41   40 1 
   313   41   43 1 
   314   40   38 1 
   315    9    7 1 
   316    9   10 1 
   317    7    6 1 
   318   35   34 1 
   319    6    4 1 
   320    6    8 1 
   321   54   53 1 
   322    4    1 1 
   323    4    2 1 
   324   46   47 1 
   325   47   43 1 
   326   47   44 1 
   327   13   12 1 
   328   12   38 1 
   329   12   14 1 
   330   52   51 2 
   331   51   50 1 
   332   51   53 1 
   333   38   34 1 
   334   38   39 1 
   335   34   48 1 
   336   34   36 1 
   337   48   50 1 
   338   48   49 1 
   339  217   53 1 
   340  217  218 1 
   341  217  219 1 
   342   53   55 1 
   343    3    2 1 
   344   37   36 1 
   345  220  219 1 
