@<TRIPOS>MOLECULE
C:\Users\Praveer\PycharmProjects\pdb_to_mol2_converter\data\pdb\stlipc.pdb
  372   373     0     0     0
SMALL
GASTEIGER

@<TRIPOS>ATOM
      1 HB6S       -7.9740    2.2600    0.9280 H         1 STL1        0.0000
      2 OB6        -6.7770    0.8200    1.8280 O.3       1 STL1        0.0000
      3 HOB6       -5.9610    0.3550    1.6170 H         1 STL1        0.0000
      4 CB6        -7.0950    1.6210    0.6870 C.3       1 STL1        0.0000
      5 HB6R       -7.3740    0.9660   -0.1700 H         1 STL1        0.0000
      6 CB5        -5.9180    2.4870    0.2960 C.3       1 STL1        0.0000
      7 OB5        -4.7650    1.6470    0.1420 O.3       1 STL1        0.0000
      8 HB5        -5.7530    3.2180    1.1260 H         1 STL1        0.0000
      9 CB1        -3.5840    2.4300   -0.0170 C.3       1 STL1        0.0000
     10 HB1        -3.4440    3.1110    0.8540 H         1 STL1        0.0000
     11 OA6        -2.4530    1.6240   -0.1730 O.3       1 STL1        0.0000
     12 CA6        -2.1750    0.8420    0.9850 C.3       1 STL1        0.0000
     13 HA6R       -2.6250   -0.1690    0.8710 H         1 STL1        0.0000
     14 HA6S       -2.6020    1.3140    1.8980 H         1 STL1        0.0000
     15 ND        -10.3400    3.0750   -4.6730 N.4       1 STL1        0.0000
     16 HND1       -9.8990    3.2260   -5.5940 H         1 STL1        0.0000
     17 HND2      -10.8280    2.1620   -4.5920 H         1 STL1        0.0000
     18 HND3       -9.5790    3.0400   -3.9280 H         1 STL1        0.0000
     19 CD2       -11.2970    4.1460   -4.2640 C.3       1 STL1        0.0000
     20 HD21      -11.8580    4.4720   -5.1530 H         1 STL1        0.0000
     21 HD22      -10.7170    5.0080   -3.9000 H         1 STL1        0.0000
     22 CB4        -6.0970    3.2250   -1.0160 C.3       1 STL1        0.0000
     23 HB4        -6.2130    2.4720   -1.8360 H         1 STL1        0.0000
     24 CD1       -12.2470    3.6190   -3.1590 C.3       1 STL1        0.0000
     25 HD11      -13.0840    3.0820   -3.6650 H         1 STL1        0.0000
     26 HD12      -12.7000    4.5000   -2.6460 H         1 STL1        0.0000
     27 OD2       -11.6210    2.7070   -2.2520 O.3       1 STL1        0.0000
     28 PD        -11.2310    3.1430   -0.6900 P.3       1 STL1        0.0000
     29 OD1        -9.6270    3.3130   -0.7270 O.3       1 STL1        0.0000
     30 OPD3      -11.5490    1.9770    0.2210 O.3       1 STL1        0.0000
     31 OPD4      -11.8580    4.4930   -0.3870 O.2       1 STL1        0.0000
     32 PB         -8.5900    3.9240   -1.7730 P.3       1 STL1        0.0000
     33 OB4        -7.2240    4.0800   -0.8800 O.3       1 STL1        0.0000
     34 OPB3       -8.4270    2.8950   -2.8930 O.2       1 STL1        0.0000
     35 OPB4       -9.0600    5.2890   -2.2280 O.3       1 STL1        0.0000
     36 CB3        -4.8810    4.0720   -1.3190 C.3       1 STL1        0.0000
     37 OB3        -5.0420    4.6080   -2.6320 O.3       1 STL1        0.0000
     38 HB3        -4.7670    4.8490   -0.5190 H         1 STL1        0.0000
     39 C71        -5.2530    5.9060   -2.7340 C.2       1 STL1        0.0000
     40 O71        -5.0490    6.7410   -1.8660 O.2       1 STL1        0.0000
     41 C72        -5.5300    6.2110   -4.1900 C.3       1 STL1        0.0000
     42 H72R       -6.5110    5.7430   -4.4210 H         1 STL1        0.0000
     43 H72S       -4.7500    5.7330   -4.8160 H         1 STL1        0.0000
     44 CB2        -3.6320    3.2290   -1.2940 C.3       1 STL1        0.0000
     45 HB2        -3.7020    2.4930   -2.1370 H         1 STL1        0.0000
     46 NB2        -2.4150    4.0180   -1.4270 N.am      1 STL1        0.0000
     47 HNB2       -2.0410    4.3780   -0.5810 H         1 STL1        0.0000
     48 CA4         0.0270    2.0960    1.1440 C.3       1 STL1        0.0000
     49 HA4        -0.2730    2.6360    0.2160 H         1 STL1        0.0000
     50 OA4        -0.4230    2.8600    2.2610 O.3       1 STL1        0.0000
     51 HOA4       -0.1660    3.7750    2.0760 H         1 STL1        0.0000
     52 CA5        -0.6710    0.7400    1.1050 C.3       1 STL1        0.0000
     53 HA5        -0.4440    0.1780    2.0410 H         1 STL1        0.0000
     54 OA5        -0.2030   -0.0030   -0.0350 O.3       1 STL1        0.0000
     55 CA1         1.2030   -0.2570   -0.0070 C.3       1 STL1        0.0000
     56 HA1         1.4550   -0.8170   -0.9450 H         1 STL1        0.0000
     57 NC          2.6320   -5.7610    0.0600 N.4       1 STL1        0.0000
     58 HNC1        1.7880   -6.3560    0.0370 H         1 STL1        0.0000
     59 HNC2        3.2510   -5.8920   -0.7620 H         1 STL1        0.0000
     60 HNC3        2.3330   -4.7370    0.0240 H         1 STL1        0.0000
     61 CC2         3.4520   -5.9170    1.2980 C.3       1 STL1        0.0000
     62 HC21        3.4960   -6.9900    1.5460 H         1 STL1        0.0000
     63 HC22        2.9380   -5.3900    2.1200 H         1 STL1        0.0000
     64 CC1         4.8730   -5.3340    1.0780 C.3       1 STL1        0.0000
     65 HC11        5.4860   -6.1290    0.5930 H         1 STL1        0.0000
     66 HC12        5.3280   -5.1520    2.0810 H         1 STL1        0.0000
     67 OC2         4.8980   -4.1810    0.2310 O.3       1 STL1        0.0000
     68 PC          5.2450   -2.6560    0.8090 P.3       1 STL1        0.0000
     69 OC1         3.8190   -1.8920    0.8210 O.3       1 STL1        0.0000
     70 OPC3        6.0880   -1.9300   -0.2080 O.2       1 STL1        0.0000
     71 OPC5        5.7660   -2.7770    2.2330 O.3       1 STL1        0.0000
     72 PA          2.3340   -2.3770    1.1590 P.3       1 STL1        0.0000
     73 OA1         1.5160   -0.9760    1.1660 O.3       1 STL1        0.0000
     74 OPA3        1.8770   -3.2720    0.0110 O.2       1 STL1        0.0000
     75 OPA4        2.3230   -3.0130    2.5340 O.3       1 STL1        0.0000
     76 CA3         1.5450    1.9290    1.1270 C.3       1 STL1        0.0000
     77 HA3         1.8100    1.3570    2.0480 H         1 STL1        0.0000
     78 OA3         2.4120    3.0640    1.1260 O.3       1 STL1        0.0000
     79 C31         2.0520    4.3050    0.9700 C.2       1 STL1        0.0000
     80 O31         0.9060    4.7450    0.9240 O.2       1 STL1        0.0000
     81 C32         3.2910    5.1460    1.2300 C.3       1 STL1        0.0000
     82 H32R        4.0390    4.8920    0.4500 H         1 STL1        0.0000
     83 H32S        3.7050    4.8580    2.2200 H         1 STL1        0.0000
     84 CA2         1.9400    1.0600   -0.0570 C.3       1 STL1        0.0000
     85 HA2         1.5480    1.5850   -0.9700 H         1 STL1        0.0000
     86 NA2         3.3620    0.8360   -0.2710 N.am      1 STL1        0.0000
     87 HNA2        3.6880   -0.0590    0.0450 H         1 STL1        0.0000
     88 C73        -5.5710    7.7250   -4.4640 C.3       1 STL1        0.0000
     89 H73R       -6.3300    8.2170   -3.8070 H         1 STL1        0.0000
     90 O73        -5.9020    7.9030   -5.8410 O.3       1 STL1        0.0000
     91 C81        -7.1570    7.6760   -6.1790 C.2       1 STL1        0.0000
     92 O81        -8.0770    7.4350   -5.4240 O.2       1 STL1        0.0000
     93 C82        -7.3160    7.7280   -7.7000 C.3       1 STL1        0.0000
     94 H82R       -7.7350    8.7280   -7.9360 H         1 STL1        0.0000
     95 H82S       -8.0720    6.9660   -7.9800 H         1 STL1        0.0000
     96 C83        -6.0240    7.5040   -8.5210 C.3       1 STL1        0.0000
     97 H83R       -5.8420    6.4160   -8.6560 H         1 STL1        0.0000
     98 H83S       -5.1360    7.9290   -7.9990 H         1 STL1        0.0000
     99 C84        -6.1020    8.2210   -9.8720 C.3       1 STL1        0.0000
    100 H84R       -6.2670    9.3020   -9.6570 H         1 STL1        0.0000
    101 H84S       -6.9790    7.8620  -10.4530 H         1 STL1        0.0000
    102 C85        -4.8260    8.0880  -10.7130 C.3       1 STL1        0.0000
    103 H85R       -4.9720    7.3050  -11.4900 H         1 STL1        0.0000
    104 H85S       -3.9810    7.7650  -10.0640 H         1 STL1        0.0000
    105 C86        -4.4420    9.4160  -11.3780 C.3       1 STL1        0.0000
    106 H86R       -4.2760   10.1800  -10.5840 H         1 STL1        0.0000
    107 H86S       -5.2870    9.7590  -12.0150 H         1 STL1        0.0000
    108 C87        -3.1710    9.3230  -12.2310 C.3       1 STL1        0.0000
    109 H87R       -3.2450    8.4530  -12.9210 H         1 STL1        0.0000
    110 H87S       -2.3080    9.1480  -11.5510 H         1 STL1        0.0000
    111 C88        -2.9280   10.5970  -13.0520 C.3       1 STL1        0.0000
    112 H88R       -3.2970   11.4790  -12.4800 H         1 STL1        0.0000
    113 H88S       -3.5230   10.5380  -13.9920 H         1 STL1        0.0000
    114 C89        -1.4500   10.8440  -13.3920 C.3       1 STL1        0.0000
    115 H89R       -0.8950   11.0920  -12.4600 H         1 STL1        0.0000
    116 H89S       -1.3920   11.7320  -14.0630 H         1 STL1        0.0000
    117 C810       -0.7550    9.6600  -14.0780 C.3       1 STL1        0.0000
    118 H810       -1.4050    9.2830  -14.9000 H         1 STL1        0.0000
    119 H810       -0.6170    8.8310  -13.3480 H         1 STL1        0.0000
    120 C811        0.6060   10.0560  -14.6660 C.3       1 STL1        0.0000
    121 H811        1.2580   10.4660  -13.8650 H         1 STL1        0.0000
    122 H811        0.4410   10.8620  -15.4160 H         1 STL1        0.0000
    123 C812        1.3180    8.8890  -15.3590 C.3       1 STL1        0.0000
    124 H812        0.6010    8.3980  -16.0550 H         1 STL1        0.0000
    125 H812        1.6240    8.1350  -14.6000 H         1 STL1        0.0000
    126 C813        2.5430    9.3400  -16.1640 C.3       1 STL1        0.0000
    127 H813        3.3040    9.7620  -15.4680 H         1 STL1        0.0000
    128 H813        2.2340   10.1580  -16.8560 H         1 STL1        0.0000
    129 C814        3.1710    8.2130  -16.9860 C.3       1 STL1        0.0000
    130 H814        2.4310    7.8030  -17.7070 H         1 STL1        0.0000
    131 H814        3.5090    7.3870  -16.3250 H         1 STL1        0.0000
    132 H814        4.0450    8.5910  -17.5590 H         1 STL1        0.0000
    133 C74        -4.2100    8.4370   -4.2480 C.3       1 STL1        0.0000
    134 H74R       -3.4140    7.8820   -4.7900 H         1 STL1        0.0000
    135 H74S       -3.9590    8.4110   -3.1670 H         1 STL1        0.0000
    136 C75        -4.2000    9.9150   -4.6950 C.3       1 STL1        0.0000
    137 H75R       -3.6400   10.5330   -3.9590 H         1 STL1        0.0000
    138 H75S       -5.2510   10.2800   -4.7030 H         1 STL1        0.0000
    139 C76        -3.5690   10.1310   -6.0800 C.3       1 STL1        0.0000
    140 H76R       -3.7950    9.2530   -6.7260 H         1 STL1        0.0000
    141 H76S       -2.4640   10.1670   -5.9630 H         1 STL1        0.0000
    142 C77        -4.0660   11.4000   -6.7950 C.3       1 STL1        0.0000
    143 H77R       -4.7600   11.9680   -6.1390 H         1 STL1        0.0000
    144 H77S       -4.6420   11.0810   -7.6940 H         1 STL1        0.0000
    145 C78        -2.9240   12.3220   -7.2430 C.3       1 STL1        0.0000
    146 H78R       -2.1490   11.6760   -7.7120 H         1 STL1        0.0000
    147 H78S       -2.4620   12.8170   -6.3610 H         1 STL1        0.0000
    148 C79        -3.3440   13.3660   -8.2910 C.3       1 STL1        0.0000
    149 H79R       -3.7930   14.2580   -7.8050 H         1 STL1        0.0000
    150 H79S       -4.1220   12.9080   -8.9430 H         1 STL1        0.0000
    151 C710       -2.1670   13.7620   -9.1940 C.3       1 STL1        0.0000
    152 H710       -1.7000   12.8120   -9.5460 H         1 STL1        0.0000
    153 H710       -1.3980   14.3220   -8.6200 H         1 STL1        0.0000
    154 C711       -2.5670   14.5390  -10.4550 C.3       1 STL1        0.0000
    155 H711       -3.5350   14.1560  -10.8460 H         1 STL1        0.0000
    156 H711       -1.7980   14.3390  -11.2360 H         1 STL1        0.0000
    157 C712       -2.6390   16.0580  -10.2650 C.3       1 STL1        0.0000
    158 H712       -1.7740   16.4040   -9.6560 H         1 STL1        0.0000
    159 H712       -3.5690   16.3090   -9.7090 H         1 STL1        0.0000
    160 C713       -2.6100   16.7930  -11.6110 C.3       1 STL1        0.0000
    161 H713       -3.1710   16.1860  -12.3580 H         1 STL1        0.0000
    162 H713       -1.5540   16.8540  -11.9620 H         1 STL1        0.0000
    163 C714       -3.2200   18.1940  -11.5710 C.3       1 STL1        0.0000
    164 H714       -2.7060   18.8280  -10.8180 H         1 STL1        0.0000
    165 H714       -4.2980   18.1320  -11.3050 H         1 STL1        0.0000
    166 H714       -3.1320   18.6820  -12.5660 H         1 STL1        0.0000
    167 C51        -1.6570    4.0980   -2.5230 C.2       1 STL1        0.0000
    168 O51        -2.0480    3.7780   -3.6400 O.2       1 STL1        0.0000
    169 C52        -0.2420    4.5660   -2.2770 C.3       1 STL1        0.0000
    170 H52R        0.3390    3.7020   -1.8880 H         1 STL1        0.0000
    171 H52S       -0.2420    5.3660   -1.5100 H         1 STL1        0.0000
    172 C53         0.4210    5.0800   -3.5610 C.3       1 STL1        0.0000
    173 H53R        0.3020    4.3070   -4.3620 H         1 STL1        0.0000
    174 O53         1.7970    5.2980   -3.2130 O.3       1 STL1        0.0000
    175 C61         2.6800    4.9660   -4.1530 C.2       1 STL1        0.0000
    176 O61         2.3990    4.6260   -5.2990 O.2       1 STL1        0.0000
    177 C62         4.0910    5.2870   -3.6770 C.3       1 STL1        0.0000
    178 H62R        4.7990    4.7970   -4.3740 H         1 STL1        0.0000
    179 H62S        4.2120    4.8310   -2.6730 H         1 STL1        0.0000
    180 C63         4.3780    6.8020   -3.5970 C.3       1 STL1        0.0000
    181 H63R        5.3400    6.9470   -3.0520 H         1 STL1        0.0000
    182 H63S        3.5830    7.3080   -3.0100 H         1 STL1        0.0000
    183 C64         4.5070    7.4840   -4.9650 C.3       1 STL1        0.0000
    184 H64R        3.5950    7.3020   -5.5730 H         1 STL1        0.0000
    185 H64S        5.3650    7.0400   -5.5150 H         1 STL1        0.0000
    186 C65         4.7180    8.9970   -4.8190 C.3       1 STL1        0.0000
    187 H65R        5.6070    9.1650   -4.1690 H         1 STL1        0.0000
    188 H65S        3.8360    9.4460   -4.3110 H         1 STL1        0.0000
    189 C66         4.9480    9.7150   -6.1550 C.3       1 STL1        0.0000
    190 H66R        4.0640    9.5830   -6.8180 H         1 STL1        0.0000
    191 H66S        5.8210    9.2370   -6.6530 H         1 STL1        0.0000
    192 C67         5.2320   11.2120   -5.9600 C.3       1 STL1        0.0000
    193 H67R        5.8480   11.3320   -5.0390 H         1 STL1        0.0000
    194 H67S        4.2770   11.7550   -5.7890 H         1 STL1        0.0000
    195 C68         6.0060   11.8470   -7.1240 C.3       1 STL1        0.0000
    196 H68R        6.2940   11.0660   -7.8610 H         1 STL1        0.0000
    197 H68S        6.9440   12.2900   -6.7190 H         1 STL1        0.0000
    198 C69         5.2450   12.9660   -7.8450 C.3       1 STL1        0.0000
    199 H69R        5.0220   13.7660   -7.1040 H         1 STL1        0.0000
    200 H69S        4.2790   12.5800   -8.2340 H         1 STL1        0.0000
    201 C610        6.0630   13.5590   -9.0010 C.3       1 STL1        0.0000
    202 H610        5.7390   13.0920   -9.9570 H         1 STL1        0.0000
    203 H610        7.1370   13.3020   -8.8560 H         1 STL1        0.0000
    204 C611        5.9630   15.0850   -9.0940 C.3       1 STL1        0.0000
    205 H611        6.2890   15.5240   -8.1230 H         1 STL1        0.0000
    206 H611        4.8990   15.3740   -9.2480 H         1 STL1        0.0000
    207 C612        6.8250   15.6690  -10.2160 C.3       1 STL1        0.0000
    208 H612        6.5060   15.2670  -11.2010 H         1 STL1        0.0000
    209 H612        7.8920   15.4020  -10.0610 H         1 STL1        0.0000
    210 H612        6.7400   16.7760  -10.2400 H         1 STL1        0.0000
    211 C54        -0.2190    6.4110   -4.0350 C.3       1 STL1        0.0000
    212 H54R       -0.2460    7.1200   -3.1800 H         1 STL1        0.0000
    213 H54S       -1.2660    6.2020   -4.3450 H         1 STL1        0.0000
    214 C55         0.5140    7.0640   -5.2150 C.3       1 STL1        0.0000
    215 H55R        0.6490    6.2980   -6.0130 H         1 STL1        0.0000
    216 H55S        1.5220    7.3850   -4.8700 H         1 STL1        0.0000
    217 C56        -0.1850    8.2750   -5.8390 C.3       1 STL1        0.0000
    218 H56R       -0.2580    9.0860   -5.0890 H         1 STL1        0.0000
    219 H56S       -1.2230    8.0020   -6.1330 H         1 STL1        0.0000
    220 C57         0.5850    8.7590   -7.0780 C.3       1 STL1        0.0000
    221 H57R        0.1290    8.2860   -7.9760 H         1 STL1        0.0000
    222 H57S        1.6380    8.3980   -7.0200 H         1 STL1        0.0000
    223 C58         0.6280   10.2830   -7.2530 C.3       1 STL1        0.0000
    224 H58R        1.3450   10.7150   -6.5200 H         1 STL1        0.0000
    225 H58S       -0.3740   10.7080   -7.0380 H         1 STL1        0.0000
    226 C59         1.0500   10.6700   -8.6780 C.3       1 STL1        0.0000
    227 H59R        0.2710   10.3070   -9.3870 H         1 STL1        0.0000
    228 H59S        2.0020   10.1490   -8.9240 H         1 STL1        0.0000
    229 C510        1.2450   12.1770   -8.8930 C.3       1 STL1        0.0000
    230 H510        1.9730   12.5750   -8.1540 H         1 STL1        0.0000
    231 H510        0.2780   12.6870   -8.7070 H         1 STL1        0.0000
    232 C511        1.7350   12.4960  -10.3160 C.3       1 STL1        0.0000
    233 H511        1.2550   11.7930  -11.0350 H         1 STL1        0.0000
    234 H511        2.8320   12.3230  -10.3640 H         1 STL1        0.0000
    235 C512        1.4110   13.9260  -10.7750 C.3       1 STL1        0.0000
    236 H512        1.6820   14.6570   -9.9830 H         1 STL1        0.0000
    237 H512        0.3120   13.9900  -10.9270 H         1 STL1        0.0000
    238 C513        2.1140   14.3150  -12.0840 C.3       1 STL1        0.0000
    239 H513        1.4950   15.0760  -12.6130 H         1 STL1        0.0000
    240 H513        2.1780   13.4210  -12.7460 H         1 STL1        0.0000
    241 C514        3.5100   14.9010  -11.8680 C.3       1 STL1        0.0000
    242 H514        4.1540   14.1720  -11.3310 H         1 STL1        0.0000
    243 H514        3.4490   15.8280  -11.2570 H         1 STL1        0.0000
    244 H514        3.9920   15.1530  -12.8370 H         1 STL1        0.0000
    245 C33         2.9930    6.6530    1.2180 C.3       1 STL1        0.0000
    246 H33R        3.9370    7.1860    1.4810 H         1 STL1        0.0000
    247 O33         2.0410    6.9580    2.2230 O.3       1 STL1        0.0000
    248 HO33        1.1790    6.5600    2.0620 H         1 STL1        0.0000
    249 C34         2.5110    7.1910   -0.1440 C.3       1 STL1        0.0000
    250 H34R        1.5380    6.7300   -0.4210 H         1 STL1        0.0000
    251 H34S        3.2550    6.8770   -0.9060 H         1 STL1        0.0000
    252 C35         2.3510    8.7210   -0.2010 C.3       1 STL1        0.0000
    253 H35R        3.2760    9.2150    0.1690 H         1 STL1        0.0000
    254 H35S        1.5250    9.0090    0.4880 H         1 STL1        0.0000
    255 C36         2.0320    9.2250   -1.6180 C.3       1 STL1        0.0000
    256 H36R        1.6800    8.3640   -2.2320 H         1 STL1        0.0000
    257 H36S        2.9590    9.6170   -2.0920 H         1 STL1        0.0000
    258 C37         0.9330   10.2960   -1.6440 C.3       1 STL1        0.0000
    259 H37R        1.2350   11.1600   -1.0140 H         1 STL1        0.0000
    260 H37S        0.0210    9.8530   -1.1810 H         1 STL1        0.0000
    261 C38         0.5700   10.7670   -3.0650 C.3       1 STL1        0.0000
    262 H38R       -0.5330   10.6640   -3.1850 H         1 STL1        0.0000
    263 H38S        1.0520   10.0960   -3.8100 H         1 STL1        0.0000
    264 C39         0.9590   12.2220   -3.3730 C.3       1 STL1        0.0000
    265 H39R        1.9590   12.2350   -3.8620 H         1 STL1        0.0000
    266 H39S        1.0450   12.7900   -2.4210 H         1 STL1        0.0000
    267 C310       -0.0600   12.9550   -4.2650 C.3       1 STL1        0.0000
    268 H310       -1.0800   12.8460   -3.8330 H         1 STL1        0.0000
    269 H310       -0.0630   12.4720   -5.2660 H         1 STL1        0.0000
    270 C311        0.2630   14.4530   -4.4070 C.3       1 STL1        0.0000
    271 H311        1.3710   14.5590   -4.4630 H         1 STL1        0.0000
    272 H311       -0.0700   14.9920   -3.4930 H         1 STL1        0.0000
    273 C312       -0.3320   15.1200   -5.6610 C.3       1 STL1        0.0000
    274 H312       -0.7530   14.3480   -6.3400 H         1 STL1        0.0000
    275 H312        0.4960   15.6220   -6.2120 H         1 STL1        0.0000
    276 C313       -1.4020   16.1800   -5.3630 C.3       1 STL1        0.0000
    277 H313       -0.9860   16.9140   -4.6340 H         1 STL1        0.0000
    278 H313       -2.2790   15.6910   -4.8830 H         1 STL1        0.0000
    279 C314       -1.8610   16.9400   -6.6110 C.3       1 STL1        0.0000
    280 H314       -2.3240   16.2480   -7.3460 H         1 STL1        0.0000
    281 H314       -1.0000   17.4430   -7.1020 H         1 STL1        0.0000
    282 H314       -2.6090   17.7160   -6.3390 H         1 STL1        0.0000
    283 C11         4.0710    1.5470   -1.1600 C.2       1 STL1        0.0000
    284 O11         3.8390    2.7330   -1.3770 O.2       1 STL1        0.0000
    285 C12         5.0780    0.7710   -1.9890 C.3       1 STL1        0.0000
    286 H12R        4.4990    0.0400   -2.5910 H         1 STL1        0.0000
    287 H12S        5.7530    0.2000   -1.3240 H         1 STL1        0.0000
    288 C13         5.8860    1.6880   -2.9370 C.3       1 STL1        0.0000
    289 H13R        5.3130    2.6180   -3.1570 H         1 STL1        0.0000
    290 O13         6.2010    0.9370   -4.1260 O.3       1 STL1        0.0000
    291 C21         5.6970    1.4340   -5.2570 C.2       1 STL1        0.0000
    292 O21         4.9940    2.4120   -5.3530 O.2       1 STL1        0.0000
    293 C22         6.0720    0.5440   -6.4460 C.3       1 STL1        0.0000
    294 H22S        5.1740    0.4670   -7.0930 H         1 STL1        0.0000
    295 H22R        6.3170   -0.4680   -6.0650 H         1 STL1        0.0000
    296 C23         7.2620    1.1040   -7.2650 C.3       1 STL1        0.0000
    297 H23R        7.6110    0.2950   -7.9480 H         1 STL1        0.0000
    298 H23S        8.1110    1.3540   -6.5920 H         1 STL1        0.0000
    299 C24         6.9200    2.3180   -8.1460 C.3       1 STL1        0.0000
    300 H24R        6.6070    3.1770   -7.5110 H         1 STL1        0.0000
    301 H24S        6.0630    2.0600   -8.8070 H         1 STL1        0.0000
    302 C25         8.1100    2.7410   -9.0250 C.3       1 STL1        0.0000
    303 H25R        8.5060    1.8400   -9.5470 H         1 STL1        0.0000
    304 H25S        8.9200    3.1370   -8.3750 H         1 STL1        0.0000
    305 C26         7.7560    3.7860  -10.0940 C.3       1 STL1        0.0000
    306 H26R        7.3040    4.6780   -9.6060 H         1 STL1        0.0000
    307 H26S        6.9950    3.3510  -10.7790 H         1 STL1        0.0000
    308 C27         8.9800    4.2310  -10.9110 C.3       1 STL1        0.0000
    309 H27R        9.5950    3.3430  -11.1820 H         1 STL1        0.0000
    310 H27S        9.6070    4.8870  -10.2660 H         1 STL1        0.0000
    311 C28         8.6140    4.9820  -12.2020 C.3       1 STL1        0.0000
    312 H28R        7.6520    5.5220  -12.0570 H         1 STL1        0.0000
    313 H28S        8.4660    4.2430  -13.0210 H         1 STL1        0.0000
    314 C29         9.6830    6.0020  -12.6190 C.3       1 STL1        0.0000
    315 H29R       10.6660    5.4850  -12.6890 H         1 STL1        0.0000
    316 H29S        9.7610    6.7790  -11.8240 H         1 STL1        0.0000
    317 C210        9.3800    6.6870  -13.9600 C.3       1 STL1        0.0000
    318 H210        8.4440    7.2810  -13.8630 H         1 STL1        0.0000
    319 H210        9.2080    5.9060  -14.7360 H         1 STL1        0.0000
    320 C211       10.5210    7.6000  -14.4340 C.3       1 STL1        0.0000
    321 H211       11.4200    6.9730  -14.6260 H         1 STL1        0.0000
    322 H211       10.7810    8.3230  -13.6280 H         1 STL1        0.0000
    323 C212       10.1690    8.3830  -15.7080 C.3       1 STL1        0.0000
    324 H212        9.4380    9.1800  -15.4470 H         1 STL1        0.0000
    325 H212        9.6780    7.7010  -16.4380 H         1 STL1        0.0000
    326 C213       11.3990    9.0110  -16.3810 C.3       1 STL1        0.0000
    327 H213       12.0110    8.1990  -16.8340 H         1 STL1        0.0000
    328 H213       12.0250    9.5160  -15.6110 H         1 STL1        0.0000
    329 C214       11.0350   10.0390  -17.4630 C.3       1 STL1        0.0000
    330 H214       10.5620   10.9200  -16.9750 H         1 STL1        0.0000
    331 H214       10.2870    9.5970  -18.1600 H         1 STL1        0.0000
    332 C215       12.2540   10.5020  -18.2730 C.3       1 STL1        0.0000
    333 H215       12.6440    9.6340  -18.8530 H         1 STL1        0.0000
    334 H215       13.0560   10.8180  -17.5680 H         1 STL1        0.0000
    335 C216       11.9510   11.6560  -19.2320 C.3       1 STL1        0.0000
    336 H216       11.6430   12.5600  -18.6640 H         1 STL1        0.0000
    337 H216       11.1290   11.3820  -19.9270 H         1 STL1        0.0000
    338 H216       12.8510   11.9110  -19.8330 H         1 STL1        0.0000
    339 C14         7.2090    2.1180   -2.2650 C.3       1 STL1        0.0000
    340 H14R        7.6980    1.2040   -1.8570 H         1 STL1        0.0000
    341 H14S        6.9580    2.7770   -1.4050 H         1 STL1        0.0000
    342 C15         8.2220    2.8360   -3.1790 C.3       1 STL1        0.0000
    343 H15R        8.5660    2.1320   -3.9700 H         1 STL1        0.0000
    344 H15S        9.1100    3.0980   -2.5590 H         1 STL1        0.0000
    345 C16         7.6910    4.1160   -3.8400 C.3       1 STL1        0.0000
    346 H16R        7.1150    4.7080   -3.0950 H         1 STL1        0.0000
    347 H16S        6.9990    3.8490   -4.6690 H         1 STL1        0.0000
    348 C17         8.8190    4.9900   -4.4050 C.3       1 STL1        0.0000
    349 H17R        9.4910    4.3560   -5.0250 H         1 STL1        0.0000
    350 H17S        9.4140    5.3840   -3.5500 H         1 STL1        0.0000
    351 C18         8.3140    6.1630   -5.2590 C.3       1 STL1        0.0000
    352 H18R        7.5570    6.7360   -4.6790 H         1 STL1        0.0000
    353 H18S        7.8140    5.7640   -6.1700 H         1 STL1        0.0000
    354 C19         9.4480    7.1160   -5.6680 C.3       1 STL1        0.0000
    355 H19R       10.2010    6.5600   -6.2690 H         1 STL1        0.0000
    356 H19S        9.9530    7.4710   -4.7410 H         1 STL1        0.0000
    357 C110        8.9590    8.3390   -6.4590 C.3       1 STL1        0.0000
    358 H110        8.1400    8.8260   -5.8830 H         1 STL1        0.0000
    359 H110        8.5390    8.0140   -7.4360 H         1 STL1        0.0000
    360 C111       10.0710    9.3750   -6.6920 C.3       1 STL1        0.0000
    361 H111       10.8690    8.9350   -7.3280 H         1 STL1        0.0000
    362 H111       10.5220    9.6300   -5.7060 H         1 STL1        0.0000
    363 C112        9.5560   10.6660   -7.3430 C.3       1 STL1        0.0000
    364 H112        8.6820   11.0260   -6.7580 H         1 STL1        0.0000
    365 H112        9.2090   10.4500   -8.3770 H         1 STL1        0.0000
    366 C113       10.6020   11.7880   -7.3730 C.3       1 STL1        0.0000
    367 H113       11.4900   11.4410   -7.9490 H         1 STL1        0.0000
    368 H113       10.9360   11.9860   -6.3290 H         1 STL1        0.0000
    369 C114       10.0790   13.0940   -7.9790 C.3       1 STL1        0.0000
    370 H114        9.1850   13.4480   -7.4210 H         1 STL1        0.0000
    371 H114        9.7950   12.9460   -9.0420 H         1 STL1        0.0000
    372 H114       10.8570   13.8870   -7.9290 H         1 STL1        0.0000
@<TRIPOS>BOND
     1  337  335 1 
     2  338  335 1 
     3  335  336 1 
     4  335  332 1 
     5  333  332 1 
     6  332  334 1 
     7  332  329 1 
     8  331  329 1 
     9  130  129 1 
    10  132  129 1 
    11  329  330 1 
    12  329  326 1 
    13  129  131 1 
    14  129  126 1 
    15  128  126 1 
    16  327  326 1 
    17  325  323 1 
    18  326  323 1 
    19  326  328 1 
    20  126  127 1 
    21  126  123 1 
    22  124  123 1 
    23  323  324 1 
    24  323  320 1 
    25  122  120 1 
    26  123  120 1 
    27  123  125 1 
    28  118  117 1 
    29  319  317 1 
    30  120  117 1 
    31  120  121 1 
    32  321  320 1 
    33  320  317 1 
    34  320  322 1 
    35  117  114 1 
    36  117  119 1 
    37  116  114 1 
    38  113  111 1 
    39  317  318 1 
    40  317  314 1 
    41  114  111 1 
    42  114  115 1 
    43  111  112 1 
    44  111  108 1 
    45  313  311 1 
    46  109  108 1 
    47  244  241 1 
    48  240  238 1 
    49  315  314 1 
    50  314  311 1 
    51  314  316 1 
    52  239  238 1 
    53  166  163 1 
    54  161  160 1 
    55  108  110 1 
    56  108  105 1 
    57  311  312 1 
    58  311  308 1 
    59  238  241 1 
    60  238  235 1 
    61  107  105 1 
    62  162  160 1 
    63  241  242 1 
    64  241  243 1 
    65  160  163 1 
    66  160  157 1 
    67  163  165 1 
    68  163  164 1 
    69  103  102 1 
    70  105  102 1 
    71  105  106 1 
    72  156  154 1 
    73  208  207 1 
    74  309  308 1 
    75  233  232 1 
    76  237  235 1 
    77  308  310 1 
    78  308  305 1 
    79  155  154 1 
    80  307  305 1 
    81  235  232 1 
    82  235  236 1 
    83  102  104 1 
    84  102   99 1 
    85  154  157 1 
    86  154  151 1 
    87  101   99 1 
    88  234  232 1 
    89  232  229 1 
    90  157  159 1 
    91  157  158 1 
    92  210  207 1 
    93  207  209 1 
    94  207  204 1 
    95  305  306 1 
    96  305  302 1 
    97  202  201 1 
    98   99  100 1 
    99   99   96 1 
   100  303  302 1 
   101  152  151 1 
   102  227  226 1 
   103  206  204 1 
   104  151  153 1 
   105  151  148 1 
   106  204  201 1 
   107  204  205 1 
   108  371  369 1 
   109  302  304 1 
   110  302  299 1 
   111  201  203 1 
   112  201  198 1 
   113  150  148 1 
   114  228  226 1 
   115  229  231 1 
   116  229  226 1 
   117  229  230 1 
   118  301  299 1 
   119  226  223 1 
   120   97   96 1 
   121   96   98 1 
   122   96   93 1 
   123  365  363 1 
   124  148  149 1 
   125  148  145 1 
   126  200  198 1 
   127  299  300 1 
   128  299  296 1 
   129   95   93 1 
   130  369  372 1 
   131  369  370 1 
   132  369  366 1 
   133  221  220 1 
   134  367  366 1 
   135  297  296 1 
   136   94   93 1 
   137  196  195 1 
   138  198  195 1 
   139  198  199 1 
   140  146  145 1 
   141   93   91 1 
   142  144  142 1 
   143  359  357 1 
   144  366  363 1 
   145  366  368 1 
   146  280  279 1 
   147  363  364 1 
   148  363  360 1 
   149  361  360 1 
   150  296  298 1 
   151  296  293 1 
   152  223  220 1 
   153  223  225 1 
   154  223  224 1 
   155  145  142 1 
   156  145  147 1 
   157  195  197 1 
   158  195  192 1 
   159  281  279 1 
   160  294  293 1 
   161  220  222 1 
   162  220  217 1 
   163  190  189 1 
   164  142  143 1 
   165  142  139 1 
   166  140  139 1 
   167  360  357 1 
   168  360  362 1 
   169  191  189 1 
   170  279  282 1 
   171  279  276 1 
   172  357  358 1 
   173  357  354 1 
   174  293  295 1 
   175  293  291 1 
   176  274  273 1 
   177  355  354 1 
   178  275  273 1 
   179   91   90 1 
   180   91   92 2 
   181  353  351 1 
   182  189  192 1 
   183  189  186 1 
   184  219  217 1 
   185  139  141 1 
   186  139  136 1 
   187  215  214 1 
   188  192  194 1 
   189  192  193 1 
   190   90   88 1 
   191  217  214 1 
   192  217  218 1 
   193  354  351 1 
   194  354  356 1 
   195  273  276 1 
   196  273  270 1 
   197   16   15 1 
   198  184  183 1 
   199  185  183 1 
   200  276  278 1 
   201  276  277 1 
   202  292  291 2 
   203  176  175 2 
   204  269  267 1 
   205  351  352 1 
   206  351  348 1 
   207  291  290 1 
   208  214  216 1 
   209  214  211 1 
   210   20   19 1 
   211  349  348 1 
   212  183  186 1 
   213  183  180 1 
   214  186  188 1 
   215  186  187 1 
   216   43   41 1 
   217  134  133 1 
   218  138  136 1 
   219  136  133 1 
   220  136  137 1 
   221   15   17 1 
   222   15   19 1 
   223   15   18 1 
   224  347  345 1 
   225   88  133 1 
   226   88   41 1 
   227   88   89 1 
   228  271  270 1 
   229   42   41 1 
   230  270  267 1 
   231  270  272 1 
   232  348  345 1 
   233  348  350 1 
   234  178  177 1 
   235  173  172 1 
   236  213  211 1 
   237  267  268 1 
   238  267  264 1 
   239   19   21 1 
   240   19   24 1 
   241  133  135 1 
   242   41   39 1 
   243  175  177 1 
   244  175  174 1 
   245  290  288 1 
   246  211  172 1 
   247  211  212 1 
   248  343  342 1 
   249  265  264 1 
   250  345  342 1 
   251  345  346 1 
   252  263  261 1 
   253  177  180 1 
   254  177  179 1 
   255   25   24 1 
   256  168  167 2 
   257  180  181 1 
   258  180  182 1 
   259  172  174 1 
   260  172  169 1 
   261  264  261 1 
   262  264  266 1 
   263  262  261 1 
   264  342  344 1 
   265  342  339 1 
   266   24   26 1 
   267   24   27 1 
   268  289  288 1 
   269  261  258 1 
   270  288  339 1 
   271  288  285 1 
   272   34   32 2 
   273   39   37 1 
   274   39   40 2 
   275   37   36 1 
   276  286  285 1 
   277  167  169 1 
   278  167   46 am
   279  169  170 1 
   280  169  171 1 
   281  339  340 1 
   282  339  341 1 
   283   27   28 1 
   284  256  255 1 
   285   35   32 1 
   286   45   44 1 
   287  257  255 1 
   288  285  287 1 
   289  285  283 1 
   290   23   22 1 
   291   32   33 1 
   292   32   29 1 
   293  258  255 1 
   294  258  260 1 
   295  258  259 1 
   296  255  252 1 
   297   46   44 1 
   298   46   47 1 
   299  284  283 2 
   300   36   44 1 
   301   36   22 1 
   302   36   38 1 
   303   44    9 1 
   304  283   86 am
   305   22   33 1 
   306   22    6 1 
   307   85   84 1 
   308   56   55 1 
   309  251  249 1 
   310   59   57 1 
   311   29   28 1 
   312   28   31 2 
   313   28   30 1 
   314  250  249 1 
   315   86   84 1 
   316   86   87 1 
   317   70   68 2 
   318  252  249 1 
   319  252  253 1 
   320  252  254 1 
   321   11    9 1 
   322   11   12 1 
   323    5    4 1 
   324  249  245 1 
   325   84   55 1 
   326   84   76 1 
   327   54   55 1 
   328   54   52 1 
   329    9    7 1 
   330    9   10 1 
   331   55   73 1 
   332   74   72 2 
   333   60   57 1 
   334   58   57 1 
   335   57   61 1 
   336    7    6 1 
   337   49   48 1 
   338   67   68 1 
   339   67   64 1 
   340    6    4 1 
   341    6    8 1 
   342   82   81 1 
   343   65   64 1 
   344    4    1 1 
   345    4    2 1 
   346   68   69 1 
   347   68   71 1 
   348   69   72 1 
   349   13   12 1 
   350   80   79 2 
   351   79   78 1 
   352   79   81 1 
   353   12   52 1 
   354   12   14 1 
   355   64   61 1 
   356   64   66 1 
   357   52   48 1 
   358   52   53 1 
   359   78   76 1 
   360   76   48 1 
   361   76   77 1 
   362   48   50 1 
   363   72   73 1 
   364   72   75 1 
   365  245   81 1 
   366  245  246 1 
   367  245  247 1 
   368   81   83 1 
   369   61   62 1 
   370   61   63 1 
   371    3    2 1 
   372  248  247 1 
   373   51   50 1 
