@<TRIPOS>MOLECULE
C:\Users\Praveer\PycharmProjects\pdb_to_mol2_converter\data\pdb\styr.pdb
   16    16     0     0     0
SMALL
GASTEIGER

@<TRIPOS>ATOM
      1 CG         -0.0050   -0.0790   -0.0030 C.ar      1 STY1        0.0000
      2 HG         -0.5070   -1.0360   -0.0050 H         1 STY1        0.0000
      3 CD1         1.3940   -0.0240   -0.0120 C.ar      1 STY1        0.0000
      4 HD1         1.9710   -0.9380   -0.0210 H         1 STY1        0.0000
      5 CD2        -0.7500    1.1040    0.0100 C.ar      1 STY1        0.0000
      6 HD2        -1.8290    1.0610    0.0170 H         1 STY1        0.0000
      7 CE1         2.0470    1.2160   -0.0080 C.ar      1 STY1        0.0000
      8 HE1         3.1290    1.2320   -0.0150 H         1 STY1        0.0000
      9 CE2        -0.0990    2.3440    0.0150 C.ar      1 STY1        0.0000
     10 HE2        -0.6940    3.2440    0.0270 H         1 STY1        0.0000
     11 CZ          1.3110    2.4180    0.0060 C.ar      1 STY1        0.0000
     12 C1          2.0620    3.6810    0.0190 C.2       1 STY1        0.0000
     13 H1          3.1600    3.5970    0.0760 H         1 STY1        0.0000
     14 C2          1.5780    4.9390   -0.0390 C.2       1 STY1        0.0000
     15 H21         0.4980    5.1350   -0.1030 H         1 STY1        0.0000
     16 H22         2.2550    5.8070   -0.0240 H         1 STY1        0.0000
@<TRIPOS>BOND
     1   15   14 1 
     2   14   16 1 
     3   14   12 2 
     4    4    3 1 
     5    8    7 1 
     6    3    7 ar
     7    3    1 ar
     8    7   11 ar
     9    2    1 1 
    10    1    5 ar
    11   11    9 ar
    12   11   12 1 
    13    5    9 ar
    14    5    6 1 
    15    9   10 1 
    16   12   13 1 
