@<TRIPOS>MOLECULE
C:\Users\Praveer\PycharmProjects\pdb_to_mol2_converter\data\pdb\t2fd.pdb
   17    17     0     0     0
SMALL
GASTEIGER

@<TRIPOS>ATOM
      1 O4'         0.9240    0.0740   -0.3540 O.3       1 T2F1        0.0000
      2 C1'         1.8380    1.1560   -0.1800 C.3       1 T2F1        0.0000
      3 C4'        -0.1450    0.2630    0.5960 C.3       1 T2F1        0.0000
      4 H11'        2.4660    1.2500   -1.0730 H         1 T2F1        0.0000
      5 H12'        2.4710    0.9220    0.6900 H         1 T2F1        0.0000
      6 H41'        0.0190   -0.4310    1.4320 H         1 T2F1        0.0000
      7 H42'       -1.0920   -0.0150    0.1170 H         1 T2F1        0.0000
      8 C2'         0.9390    2.3420    0.0900 C.3       1 T2F1        0.0000
      9 H21'        0.4480    2.6330   -0.8340 H         1 T2F1        0.0000
     10 F2'         1.6190    3.4350    0.5600 F         1 T2F1        0.0000
     11 C3'        -0.1170    1.7430    1.0230 C.3       1 T2F1        0.0000
     12 H31'       -1.0890    2.2380    0.8720 H         1 T2F1        0.0000
     13 O3'         0.3010    1.8810    2.3830 O.3       1 T2F1        0.0000
     14 P          -0.6990    1.3510    3.5670 P.3       1 T2F1        0.0000
     15 O1P        -0.6840    2.4540    4.6050 O.3       1 T2F1        0.0000
     16 O2P        -0.0590    0.0500    4.0300 O.3       1 T2F1        0.0000
     17 O3P        -2.0510    1.1530    2.8980 O.2       1 T2F1        0.0000
@<TRIPOS>BOND
     1    4    2 1 
     2    9    8 1 
     3    1    2 1 
     4    1    3 1 
     5    2    8 1 
     6    2    5 1 
     7    8   10 1 
     8    8   11 1 
     9    7    3 1 
    10    3   11 1 
    11    3    6 1 
    12   12   11 1 
    13   11   13 1 
    14   13   14 1 
    15   17   14 2 
    16   14   16 1 
    17   14   15 1 
