@<TRIPOS>MOLECULE
C:\Users\Praveer\PycharmProjects\pdb_to_mol2_converter\data\pdb\t2fu.pdb
   17    17     0     0     0
SMALL
GASTEIGER

@<TRIPOS>ATOM
      1 O4'         1.2630    0.1930   -0.5000 O.3       1 T2F1        0.0000
      2 C1'         1.8290    1.3610    0.1120 C.3       1 T2F1        0.0000
      3 C4'        -0.0570    0.0070    0.0410 C.3       1 T2F1        0.0000
      4 H11'        2.5420    1.8310   -0.5760 H         1 T2F1        0.0000
      5 H12'        2.3700    1.0320    1.0140 H         1 T2F1        0.0000
      6 H41'       -0.1000   -0.9630    0.5560 H         1 T2F1        0.0000
      7 H42'       -0.7590   -0.0160   -0.8040 H         1 T2F1        0.0000
      8 C2'         0.6470    2.2370    0.4900 C.3       1 T2F1        0.0000
      9 H22'        0.8910    2.9770    1.2390 H         1 T2F1        0.0000
     10 F2'         0.1640    2.8900   -0.6240 F         1 T2F1        0.0000
     11 C3'        -0.3390    1.1810    0.9810 C.3       1 T2F1        0.0000
     12 H31'       -1.3880    1.5140    0.9160 H         1 T2F1        0.0000
     13 O3'        -0.0160    0.7800    2.3120 O.3       1 T2F1        0.0000
     14 P          -0.4140    1.7060    3.5850 P.3       1 T2F1        0.0000
     15 O1P         0.5570    2.8750    3.5380 O.3       1 T2F1        0.0000
     16 O2P        -0.2100    0.7960    4.7840 O.3       1 T2F1        0.0000
     17 O3P        -1.8610    2.0910    3.3380 O.2       1 T2F1        0.0000
@<TRIPOS>BOND
     1    7    3 1 
     2   10    8 1 
     3    4    2 1 
     4    1    3 1 
     5    1    2 1 
     6    3    6 1 
     7    3   11 1 
     8    2    8 1 
     9    2    5 1 
    10    8   11 1 
    11    8    9 1 
    12   12   11 1 
    13   11   13 1 
    14   13   14 1 
    15   17   14 2 
    16   15   14 1 
    17   14   16 1 
