@<TRIPOS>MOLECULE
C:\Users\Praveer\PycharmProjects\pdb_to_mol2_converter\data\pdb\t3ph.pdb
   18    18     0     0     0
SMALL
GASTEIGER

@<TRIPOS>ATOM
      1 O4'         1.1810    0.2600   -0.6410 O.3       1 T3P1        0.0000
      2 C1'         1.8440    1.3640   -0.0270 C.3       1 T3P1        0.0000
      3 H11'        2.5000    1.8500   -0.7630 H         1 T3P1        0.0000
      4 H12'        2.4600    0.9680    0.7960 H         1 T3P1        0.0000
      5 C4'        -0.0350    0.0020    0.0790 C.3       1 T3P1        0.0000
      6 H41'        0.0870   -0.9370    0.6400 H         1 T3P1        0.0000
      7 H42'       -0.8370   -0.1410   -0.6570 H         1 T3P1        0.0000
      8 C2'         0.7030    2.2310    0.4960 C.3       1 T3P1        0.0000
      9 H21'        0.2560    2.8140   -0.3220 H         1 T3P1        0.0000
     10 H22'        1.0250    2.9530    1.2560 H         1 T3P1        0.0000
     11 C3'        -0.2970    1.1970    1.0000 C.3       1 T3P1        0.0000
     12 H31'       -1.3450    1.5370    0.9020 H         1 T3P1        0.0000
     13 O3'         0.0400    0.8340    2.3340 O.3       1 T3P1        0.0000
     14 P          -0.5090    1.7400    3.5470 P.3       1 T3P1        0.0000
     15 O1P         0.4670    2.8660    3.7260 O.3       1 T3P1        0.0000
     16 O2P        -1.9670    2.0120    3.2920 O.2       1 T3P1        0.0000
     17 O3T        -0.3330    0.7610    4.7910 O.3       1 T3P1        0.0000
     18 H3T         0.6060    0.5840    4.9050 H         1 T3P1        0.0000
@<TRIPOS>BOND
     1    3    2 1 
     2    7    5 1 
     3    1    2 1 
     4    1    5 1 
     5    9    8 1 
     6    2    8 1 
     7    2    4 1 
     8    5    6 1 
     9    5   11 1 
    10    8   11 1 
    11    8   10 1 
    12   12   11 1 
    13   11   13 1 
    14   13   14 1 
    15   16   14 2 
    16   14   15 1 
    17   14   17 1 
    18   17   18 1 
