@<TRIPOS>MOLECULE
C:\Users\Praveer\PycharmProjects\pdb_to_mol2_converter\data\pdb\t3pm.pdb
   21    21     0     0     0
SMALL
GASTEIGER

@<TRIPOS>ATOM
      1 O4'         1.2000    0.2760   -0.6650 O.3       1 T3P1        0.0000
      2 C1'         1.8430    1.3470    0.0280 C.3       1 T3P1        0.0000
      3 H11'        2.5340    1.8620   -0.6540 H         1 T3P1        0.0000
      4 H12'        2.4200    0.9090    0.8550 H         1 T3P1        0.0000
      5 C4'        -0.0610    0.0130   -0.0250 C.3       1 T3P1        0.0000
      6 H41'        0.0080   -0.9560    0.4890 H         1 T3P1        0.0000
      7 H42'       -0.8240   -0.0720   -0.8100 H         1 T3P1        0.0000
      8 C2'         0.6870    2.2030    0.5290 C.3       1 T3P1        0.0000
      9 H21'        0.2850    2.8100   -0.2970 H         1 T3P1        0.0000
     10 H22'        0.9770    2.9050    1.3200 H         1 T3P1        0.0000
     11 C3'        -0.3470    1.1600    0.9460 C.3       1 T3P1        0.0000
     12 H31'       -1.3850    1.5220    0.8340 H         1 T3P1        0.0000
     13 O3'        -0.0880    0.7120    2.2700 O.3       1 T3P1        0.0000
     14 P          -0.4550    1.6720    3.5290 P.3       1 T3P1        0.0000
     15 O1P        -0.8450    0.7710    4.6760 O.3       1 T3P1        0.0000
     16 O2P        -1.3980    2.7480    3.0510 O.2       1 T3P1        0.0000
     17 O3T         0.9670    2.3830    3.9220 O.3       1 T3P1        0.0000
     18 C3T         2.0930    1.5260    4.1090 C.3       1 T3P1        0.0000
     19 H3T1        2.3410    0.9760    3.1730 H         1 T3P1        0.0000
     20 H3T2        1.9040    0.7860    4.9210 H         1 T3P1        0.0000
     21 H3T3        2.9770    2.1330    4.3990 H         1 T3P1        0.0000
@<TRIPOS>BOND
     1    7    5 1 
     2    1    5 1 
     3    1    2 1 
     4    3    2 1 
     5    9    8 1 
     6    5    6 1 
     7    5   11 1 
     8    2    8 1 
     9    2    4 1 
    10    8   11 1 
    11    8   10 1 
    12   12   11 1 
    13   11   13 1 
    14   13   14 1 
    15   16   14 2 
    16   19   18 1 
    17   14   17 1 
    18   14   15 1 
    19   17   18 1 
    20   18   21 1 
    21   18   20 1 
