@<TRIPOS>MOLECULE
C:\Users\Praveer\PycharmProjects\pdb_to_mol2_converter\data\pdb\t5ph.pdb
   21    21     0     0     0
SMALL
GASTEIGER

@<TRIPOS>ATOM
      1 C5'        -0.4680   -1.2510   -0.8720 C.3       1 T5P1        0.0000
      2 H5'        -1.5780   -1.1720   -0.7930 H         1 T5P1        0.0000
      3 H5''       -0.1850   -1.1740   -1.9480 H         1 T5P1        0.0000
      4 O5'        -0.0140   -2.4930   -0.3010 O.3       1 T5P1        0.0000
      5 P          -0.5300   -3.8610   -0.9900 P.3       1 T5P1        0.0000
      6 O1P        -1.9910   -3.6950   -1.3120 O.2       1 T5P1        0.0000
      7 O2P        -0.0560   -4.9930   -0.1250 O.3       1 T5P1        0.0000
      8 O3P         0.3350   -3.8890   -2.3300 O.3       1 T5P1        0.0000
      9 H5T         1.2640   -3.9010   -2.0820 H         1 T5P1        0.0000
     10 O4'         1.5540    0.1340   -0.3650 O.3       1 T5P1        0.0000
     11 C1'         1.9240    1.4860   -0.0770 C.3       1 T5P1        0.0000
     12 H1'         2.5470    1.8380   -0.9110 H         1 T5P1        0.0000
     13 H1''        2.5370    1.4920    0.8370 H         1 T5P1        0.0000
     14 C4'         0.1510   -0.0520   -0.1310 C.3       1 T5P1        0.0000
     15 H4''        0.0390   -0.2270    0.9530 H         1 T5P1        0.0000
     16 C2'         0.6180    2.2720    0.0630 C.3       1 T5P1        0.0000
     17 H2'         0.6350    3.2420   -0.4500 H         1 T5P1        0.0000
     18 H2''        0.4110    2.4690    1.1270 H         1 T5P1        0.0000
     19 C3'        -0.4250    1.3040   -0.5030 C.3       1 T5P1        0.0000
     20 H3'        -1.4370    1.4640   -0.1100 H         1 T5P1        0.0000
     21 H3''       -0.4820    1.3940   -1.6000 H         1 T5P1        0.0000
@<TRIPOS>BOND
     1    8    9 1 
     2    8    5 1 
     3    3    1 1 
     4   21   19 1 
     5    6    5 2 
     6    5    4 1 
     7    5    7 1 
     8   12   11 1 
     9    1    2 1 
    10    1    4 1 
    11    1   14 1 
    12   19   14 1 
    13   19   20 1 
    14   19   16 1 
    15   17   16 1 
    16   10   14 1 
    17   10   11 1 
    18   14   15 1 
    19   11   16 1 
    20   11   13 1 
    21   16   18 1 
