@<TRIPOS>MOLECULE
C:\Users\Praveer\PycharmProjects\pdb_to_mol2_converter\data\pdb\tade.pdb
   26    28     0     0     0
SMALL
GASTEIGER

@<TRIPOS>ATOM
      1 C5         -1.1310   -3.1100   -1.4020 C.ar      1 TAD1        0.0000
      2 N7         -1.6530   -2.2020   -2.3270 N.ar      1 TAD1        0.0000
      3 C8         -1.2500   -1.0240   -1.8650 C.ar      1 TAD1        0.0000
      4 H8         -1.4730   -0.0580   -2.3240 H         1 TAD1        0.0000
      5 N9         -0.5070   -1.1100   -0.7070 N.ar      1 TAD1        0.0000
      6 N1         -0.5460   -5.1220   -0.2710 N.2       1 TAD1        0.0000
      7 C2          0.1310   -4.3720    0.6430 C.2       1 TAD1        0.0000
      8 H2          0.6360   -4.9020    1.4550 H         1 TAD1        0.0000
      9 N3          0.2220   -3.0160    0.6300 N.pl3     1 TAD1        0.0000
     10 C4         -0.4150   -2.4420   -0.4020 C.ar      1 TAD1        0.0000
     11 C6         -1.1930   -4.5150   -1.3030 C.3       1 TAD1        0.0000
     12 N6         -1.8640   -5.3100   -2.1570 N.3       1 TAD1        0.0000
     13 H61        -2.3650   -4.9330   -2.9310 H         1 TAD1        0.0000
     14 H62        -1.8580   -6.2890   -1.9750 H         1 TAD1        0.0000
     15 O4'        -0.4290    1.2390   -0.4300 O.3       1 TAD1        0.0000
     16 C1'         0.0890   -0.0100    0.0610 C.3       1 TAD1        0.0000
     17 H12'       -0.2020   -0.0730    1.1230 H         1 TAD1        0.0000
     18 C4'         0.6420    2.1050   -0.8200 C.3       1 TAD1        0.0000
     19 H41'        0.3640    3.1480   -0.6070 H         1 TAD1        0.0000
     20 H42'        0.7760    1.9940   -1.9070 H         1 TAD1        0.0000
     21 C2'         1.6090    0.0940   -0.0570 C.3       1 TAD1        0.0000
     22 H21'        1.9670   -0.3360   -1.0060 H         1 TAD1        0.0000
     23 H22'        2.1320   -0.4360    0.7510 H         1 TAD1        0.0000
     24 C3'         1.8470    1.6030   -0.0420 C.3       1 TAD1        0.0000
     25 H31'        1.8190    1.9880    0.9910 H         1 TAD1        0.0000
     26 H32'        2.8090    1.9040   -0.4740 H         1 TAD1        0.0000
@<TRIPOS>BOND
     1   13   12 1 
     2    2    3 ar
     3    2    1 ar
     4    4    3 1 
     5   12   14 1 
     6   12   11 1 
     7   20   18 1 
     8    3    5 ar
     9    1   11 1 
    10    1   10 ar
    11   11    6 1 
    12   22   21 1 
    13   18   19 1 
    14   18   15 1 
    15   18   24 1 
    16    5   10 ar
    17    5   16 1 
    18   26   24 1 
    19   15   16 1 
    20   10    9 1 
    21    6    7 2 
    22   21   24 1 
    23   21   16 1 
    24   21   23 1 
    25   24   25 1 
    26   16   17 1 
    27    9    7 1 
    28    7    8 1 
