@<TRIPOS>MOLECULE
C:\Users\Praveer\PycharmProjects\pdb_to_mol2_converter\data\pdb\tboh.pdb
   15    14     0     0     0
SMALL
GASTEIGER

@<TRIPOS>ATOM
      1 C           1.5080   -0.0330    0.0220 C.3       1 TBO1        0.0000
      2 O           1.9300   -0.7040   -1.1380 O.3       1 TBO1        0.0000
      3 HO          2.8840   -0.7220   -1.0630 H         1 TBO1        0.0000
      4 C1         -0.0150    0.0360   -0.0190 C.3       1 TBO1        0.0000
      5 H11        -0.4460   -0.9870   -0.0510 H         1 TBO1        0.0000
      6 H12        -0.3500    0.5860   -0.9240 H         1 TBO1        0.0000
      7 H13        -0.4020    0.5580    0.8790 H         1 TBO1        0.0000
      8 C2          2.1270    1.3610   -0.0040 C.3       1 TBO1        0.0000
      9 H21         1.8040    1.9070   -0.9160 H         1 TBO1        0.0000
     10 H22         3.2350    1.3050    0.0050 H         1 TBO1        0.0000
     11 H23         1.7960    1.9390    0.8850 H         1 TBO1        0.0000
     12 C3          1.9920   -0.8430    1.2220 C.3       1 TBO1        0.0000
     13 H31         3.1000   -0.9090    1.2360 H         1 TBO1        0.0000
     14 H32         1.5740   -1.8710    1.1850 H         1 TBO1        0.0000
     15 H33         1.6570   -0.3610    2.1640 H         1 TBO1        0.0000
@<TRIPOS>BOND
     1    2    3 1 
     2    2    1 1 
     3    6    4 1 
     4    9    8 1 
     5    5    4 1 
     6    4    1 1 
     7    4    7 1 
     8    8   10 1 
     9    8    1 1 
    10    8   11 1 
    11    1   12 1 
    12   14   12 1 
    13   12   13 1 
    14   12   15 1 
