@<TRIPOS>MOLECULE
C:\Users\Praveer\PycharmProjects\pdb_to_mol2_converter\data\pdb\tbre.pdb
    8     7     0     0     0
SMALL
GASTEIGER

@<TRIPOS>ATOM
      1 C1          1.9810   -0.0030    0.0010 C.3       1 TBR1        0.0000
      2 BR11        0.0250   -0.0010    0.0010 Br        1 TBR1        0.0000
      3 BR12        2.6140   -0.9490    1.5920 Br        1 TBR1        0.0000
      4 BR13        2.6140   -0.9480   -1.5910 Br        1 TBR1        0.0000
      5 C2          2.5110    1.4430    0.0020 C.3       1 TBR1        0.0000
      6 H21         2.1560    1.9870    0.9030 H         1 TBR1        0.0000
      7 H22         2.1560    1.9880   -0.8990 H         1 TBR1        0.0000
      8 H23         3.6210    1.4510    0.0020 H         1 TBR1        0.0000
@<TRIPOS>BOND
     1    4    1 1 
     2    7    5 1 
     3    1    2 1 
     4    1    5 1 
     5    1    3 1 
     6    5    8 1 
     7    5    6 1 
