@<TRIPOS>MOLECULE
C:\Users\Praveer\PycharmProjects\pdb_to_mol2_converter\data\pdb\tc243c.pdb
   17    18     0     0     0
SMALL
GASTEIGER

@<TRIPOS>ATOM
      1 H10         2.0970   -3.2930    0.0000 H         1 TC21        0.0000
      2 H3          3.1530    1.1980    0.0000 H         1 TC21        0.0000
      3 H2          1.9220    3.3440    0.0000 H         1 TC21        0.0000
      4 H1         -0.5560    3.3610   -0.0000 H         1 TC21        0.0000
      5 H6         -1.8170    1.2240   -0.0000 H         1 TC21        0.0000
      6 H9         -0.3550   -3.2770   -0.0000 H         1 TC21        0.0000
      7 C10         1.5140   -2.3690    0.0000 C.ar      1 TC21        0.0000
      8 N11         2.1530   -1.1720    0.0000 N.ar      1 TC21        0.0000
      9 C4          1.3610   -0.0090    0.0000 C.ar      1 TC21        0.0000
     10 C3          2.0730    1.1940    0.0000 C.ar      1 TC21        0.0000
     11 C2          1.3750    2.4110    0.0000 C.ar      1 TC21        0.0000
     12 C1         -0.0230    2.4200   -0.0000 C.ar      1 TC21        0.0000
     13 C6         -0.7370    1.2150   -0.0000 C.ar      1 TC21        0.0000
     14 C5         -0.0400   -0.0010   -0.0000 C.ar      1 TC21        0.0000
     15 C8         -0.7140   -1.2840   -0.0000 C.ar      1 TC21        0.0000
     16 O8         -1.9300   -1.4770   -0.0000 O.2       1 TC21        0.0000
     17 N9          0.1200   -2.3910   -0.0000 N.ar      1 TC21        0.0000
@<TRIPOS>BOND
     1    1    7 1 
     2    2   10 1 
     3    3   11 1 
     4    4   12 1 
     5    5   13 1 
     6    6   17 1 
     7    7    8 ar
     8    7   17 ar
     9    8    9 ar
    10    9   10 ar
    11    9   14 ar
    12   10   11 ar
    13   11   12 ar
    14   12   13 ar
    15   13   14 ar
    16   14   15 ar
    17   15   16 2 
    18   15   17 ar
