@<TRIPOS>MOLECULE
C:\Users\Praveer\PycharmProjects\pdb_to_mol2_converter\data\pdb\tcle.pdb
    8     7     0     0     0
SMALL
GASTEIGER

@<TRIPOS>ATOM
      1 C1          1.7810    0.0020    0.0010 C.3       1 TCL1        0.0000
      2 CL11        0.0070   -0.0060    0.0000 Cl        1 TCL1        0.0000
      3 CL12        2.3330   -0.8830    1.4360 Cl        1 TCL1        0.0000
      4 CL13        2.3340   -0.8820   -1.4350 Cl        1 TCL1        0.0000
      5 C2          2.3260    1.4470    0.0020 C.3       1 TCL1        0.0000
      6 H21         1.9780    1.9980    0.9020 H         1 TCL1        0.0000
      7 H22         1.9780    1.9990   -0.8980 H         1 TCL1        0.0000
      8 H23         3.4370    1.4490    0.0020 H         1 TCL1        0.0000
@<TRIPOS>BOND
     1    4    1 1 
     2    7    5 1 
     3    2    1 1 
     4    1    5 1 
     5    1    3 1 
     6    5    8 1 
     7    5    6 1 
