@<TRIPOS>MOLECULE
C:\Users\Praveer\PycharmProjects\pdb_to_mol2_converter\data\pdb\tcyt.pdb
   24    25     0     0     0
SMALL
GASTEIGER

@<TRIPOS>ATOM
      1 N1          2.9960    1.7980    0.9190 N.ar      1 TCY1        0.0000
      2 C6          3.2000    1.3060    2.1820 C.ar      1 TCY1        0.0000
      3 H6          2.3480    0.8030    2.6440 H         1 TCY1        0.0000
      4 C2          4.0830    2.4040    0.2340 C.ar      1 TCY1        0.0000
      5 O2          3.9420    2.7000   -0.9480 O.2       1 TCY1        0.0000
      6 N3          5.2390    2.6450    0.9070 N.ar      1 TCY1        0.0000
      7 C4          5.4000    2.2410    2.1790 C.ar      1 TCY1        0.0000
      8 N4          6.5150    2.5510    2.8270 N.pl3     1 TCY1        0.0000
      9 H41         7.1780    3.1080    2.3370 H         1 TCY1        0.0000
     10 H42         6.6840    2.2780    3.7700 H         1 TCY1        0.0000
     11 C5          4.3690    1.5070    2.8420 C.ar      1 TCY1        0.0000
     12 H5          4.4960    1.1550    3.8700 H         1 TCY1        0.0000
     13 O4'         0.6410    1.7530    1.1900 O.3       1 TCY1        0.0000
     14 C1'         1.7080    1.5380    0.2580 C.3       1 TCY1        0.0000
     15 H12'        1.5280    2.2330   -0.5800 H         1 TCY1        0.0000
     16 C4'        -0.4650    0.8900    0.8980 C.3       1 TCY1        0.0000
     17 H41'       -1.3650    1.5010    0.7220 H         1 TCY1        0.0000
     18 H42'       -0.6390    0.2670    1.7870 H         1 TCY1        0.0000
     19 C2'         1.4900    0.1010   -0.1950 C.3       1 TCY1        0.0000
     20 H21'        1.8250   -0.6130    0.5730 H         1 TCY1        0.0000
     21 H22'        2.0120   -0.1480   -1.1260 H         1 TCY1        0.0000
     22 C3'        -0.0350    0.0560   -0.3070 C.3       1 TCY1        0.0000
     23 H31'       -0.3590    0.5470   -1.2390 H         1 TCY1        0.0000
     24 H32'       -0.4520   -0.9560   -0.3170 H         1 TCY1        0.0000
@<TRIPOS>BOND
     1   23   22 1 
     2   21   19 1 
     3    5    4 2 
     4   15   14 1 
     5   24   22 1 
     6   22   19 1 
     7   22   16 1 
     8   19   14 1 
     9   19   20 1 
    10    4    6 ar
    11    4    1 ar
    12   14    1 1 
    13   14   13 1 
    14   17   16 1 
    15   16   13 1 
    16   16   18 1 
    17    6    7 ar
    18    1    2 ar
    19    7    8 1 
    20    7   11 ar
    21    2    3 1 
    22    2   11 ar
    23    9    8 1 
    24    8   10 1 
    25   11   12 1 
