@<TRIPOS>MOLECULE
C:\Users\Praveer\PycharmProjects\pdb_to_mol2_converter\data\pdb\tea.pdb
   29    28     0     0     0
SMALL
GASTEIGER

@<TRIPOS>ATOM
      1 N           1.4800    0.0100   -0.0000 N.4       1 TEA1        0.0000
      2 C1          1.9790    1.4490   -0.0000 C.3       1 TEA1        0.0000
      3 C2          1.9920   -0.7020   -1.2450 C.3       1 TEA1        0.0000
      4 C3          1.9920   -0.7020    1.2450 C.3       1 TEA1        0.0000
      5 C4         -0.0430   -0.0050   -0.0000 C.3       1 TEA1        0.0000
      6 H11         1.5790    1.9640    0.8720 H         1 TEA1        0.0000
      7 H12         1.5790    1.9640   -0.8720 H         1 TEA1        0.0000
      8 H21         1.6630   -1.7400   -1.2220 H         1 TEA1        0.0000
      9 H22         3.0800   -0.7230   -1.2200 H         1 TEA1        0.0000
     10 H31         3.0800   -0.7220    1.2200 H         1 TEA1        0.0000
     11 H32         1.6630   -1.7400    1.2220 H         1 TEA1        0.0000
     12 H41        -0.4040    0.5380   -0.8720 H         1 TEA1        0.0000
     13 H42        -0.4040    0.5380    0.8720 H         1 TEA1        0.0000
     14 C5          3.5120    1.6140    0.0000 C.3       1 TEA1        0.0000
     15 H51         3.9780    1.1660   -0.9020 H         1 TEA1        0.0000
     16 H52         3.9780    1.1660    0.9020 H         1 TEA1        0.0000
     17 H53         3.7730    2.6960    0.0000 H         1 TEA1        0.0000
     18 C6          1.5490   -0.0830   -2.5860 C.3       1 TEA1        0.0000
     19 H61         1.9130    0.9590   -2.7040 H         1 TEA1        0.0000
     20 H62         0.4450   -0.0910   -2.7040 H         1 TEA1        0.0000
     21 H63         1.9720   -0.6740   -3.4300 H         1 TEA1        0.0000
     22 C7          1.5490   -0.0830    2.5860 C.3       1 TEA1        0.0000
     23 H71         0.4450   -0.0910    2.7040 H         1 TEA1        0.0000
     24 H72         1.9130    0.9590    2.7040 H         1 TEA1        0.0000
     25 H73         1.9720   -0.6730    3.4300 H         1 TEA1        0.0000
     26 C8         -0.6880   -1.4050   -0.0000 C.3       1 TEA1        0.0000
     27 H81        -0.4120   -1.9900    0.9020 H         1 TEA1        0.0000
     28 H82        -0.4120   -1.9900   -0.9020 H         1 TEA1        0.0000
     29 H83        -1.7970   -1.3080   -0.0000 H         1 TEA1        0.0000
@<TRIPOS>BOND
     1   21   18 1 
     2   19   18 1 
     3   20   18 1 
     4   18    3 1 
     5    3    8 1 
     6    3    9 1 
     7    3    1 1 
     8   15   14 1 
     9   28   26 1 
    10    7    2 1 
    11   12    5 1 
    12    1    2 1 
    13    1    5 1 
    14    1    4 1 
    15    2   14 1 
    16    2    6 1 
    17    5   26 1 
    18    5   13 1 
    19   14   17 1 
    20   14   16 1 
    21   26   29 1 
    22   26   27 1 
    23   10    4 1 
    24   11    4 1 
    25    4   22 1 
    26   22   23 1 
    27   22   24 1 
    28   22   25 1 
