@<TRIPOS>MOLECULE
C:\Users\Praveer\PycharmProjects\pdb_to_mol2_converter\data\pdb\tfe.pdb
    9     8     0     0     0
SMALL
GASTEIGER

@<TRIPOS>ATOM
      1 O1          0.9170   -0.0180    0.0110 O.3       1 TFE1        0.0000
      2 HO1         1.2310   -0.4250    0.8250 H         1 TFE1        0.0000
      3 H11         0.9580    1.8680    0.8970 H         1 TFE1        0.0000
      4 H12         0.9550    1.8430   -0.9010 H         1 TFE1        0.0000
      5 C1          1.3670    1.3430    0.0050 C.3       1 TFE1        0.0000
      6 F21         3.2600    2.7710    0.0050 F         1 TFE1        0.0000
      7 F22         3.4560    0.9070    1.0630 F         1 TFE1        0.0000
      8 F23         3.4530    0.9300   -1.0920 F         1 TFE1        0.0000
      9 C2          2.8920    1.4820   -0.0090 C.3       1 TFE1        0.0000
@<TRIPOS>BOND
     1    8    9 1 
     2    4    5 1 
     3    9    5 1 
     4    9    6 1 
     5    9    7 1 
     6    5    1 1 
     7    5    3 1 
     8    1    2 1 
