@<TRIPOS>MOLECULE
C:\Users\Praveer\PycharmProjects\pdb_to_mol2_converter\data\pdb\tfet.pdb
    8     7     0     0     0
SMALL
GASTEIGER

@<TRIPOS>ATOM
      1 H11        -3.0680    6.2250   -3.7780 H         1 TFE1        0.0000
      2 H12        -3.8930    5.2480   -2.5290 H         1 TFE1        0.0000
      3 H13        -3.1530    6.8160   -2.0930 H         1 TFE1        0.0000
      4 C1         -3.7220    6.2850   -2.8840 C.3       1 TFE1        0.0000
      5 F21        -5.8110    7.0580   -2.1200 F         1 TFE1        0.0000
      6 F22        -5.7080    6.3460   -4.1480 F         1 TFE1        0.0000
      7 F23        -4.8180    8.2330   -3.6230 F         1 TFE1        0.0000
      8 C2         -5.0150    6.9810   -3.1940 C.3       1 TFE1        0.0000
@<TRIPOS>BOND
     1    6    8 1 
     2    1    4 1 
     3    7    8 1 
     4    8    4 1 
     5    8    5 1 
     6    4    2 1 
     7    4    3 1 
