@<TRIPOS>MOLECULE
C:\Users\Praveer\PycharmProjects\pdb_to_mol2_converter\data\pdb\tgua.pdb
   27    29     0     0     0
SMALL
GASTEIGER

@<TRIPOS>ATOM
      1 N9         -0.6200   -1.0840   -0.7420 N.ar      1 TGU1        0.0000
      2 C4         -1.7390   -1.7760   -0.3510 C.ar      1 TGU1        0.0000
      3 N3         -2.5070   -1.5800    0.7370 N.ar      1 TGU1        0.0000
      4 C2         -3.5470   -2.4110    0.8530 C.ar      1 TGU1        0.0000
      5 N1         -3.7920   -3.4020   -0.0670 N.ar      1 TGU1        0.0000
      6 H1         -4.5750   -4.0060    0.0780 H         1 TGU1        0.0000
      7 N2         -4.3880   -2.3100    1.8730 N.pl3     1 TGU1        0.0000
      8 H21        -5.1790   -2.8980    1.9930 H         1 TGU1        0.0000
      9 H22        -4.1940   -1.5810    2.5210 H         1 TGU1        0.0000
     10 C6         -3.0370   -3.6580   -1.1980 C.ar      1 TGU1        0.0000
     11 O6         -3.3960   -4.5880   -1.9210 O.2       1 TGU1        0.0000
     12 C5         -1.9380   -2.7700   -1.3310 C.ar      1 TGU1        0.0000
     13 N7         -0.9570   -2.6780   -2.3070 N.ar      1 TGU1        0.0000
     14 C8         -0.2040   -1.6590   -1.9200 C.ar      1 TGU1        0.0000
     15 H8          0.6680   -1.2870   -2.4590 H         1 TGU1        0.0000
     16 O4'        -0.3070    1.2430   -0.8040 O.3       1 TGU1        0.0000
     17 C1'        -0.0020    0.0580   -0.0570 C.3       1 TGU1        0.0000
     18 H12'       -0.4370    0.2120    0.9450 H         1 TGU1        0.0000
     19 C4'         0.8340    2.1060   -0.8710 C.3       1 TGU1        0.0000
     20 H41'        0.5270    3.1260   -0.6000 H         1 TGU1        0.0000
     21 H42'        1.1710    2.1150   -1.9180 H         1 TGU1        0.0000
     22 C2'         1.5230    0.0170    0.0370 C.3       1 TGU1        0.0000
     23 H21'        1.9830   -0.4540   -0.8450 H         1 TGU1        0.0000
     24 H22'        1.8830   -0.5330    0.9180 H         1 TGU1        0.0000
     25 C3'         1.8760    1.5040    0.0700 C.3       1 TGU1        0.0000
     26 H31'        1.7360    1.9020    1.0890 H         1 TGU1        0.0000
     27 H32'        2.9100    1.7240   -0.2220 H         1 TGU1        0.0000
@<TRIPOS>BOND
     1   15   14 1 
     2   13   14 ar
     3   13   12 ar
     4   11   10 2 
     5   14    1 ar
     6   21   19 1 
     7   12   10 ar
     8   12    2 ar
     9   10    5 ar
    10   19   16 1 
    11   19   20 1 
    12   19   25 1 
    13   23   22 1 
    14   16   17 1 
    15    1    2 ar
    16    1   17 1 
    17    2    3 ar
    18   27   25 1 
    19    5    6 1 
    20    5    4 ar
    21   17   22 1 
    22   17   18 1 
    23   22   25 1 
    24   22   24 1 
    25   25   26 1 
    26    3    4 ar
    27    4    7 1 
    28    7    8 1 
    29    7    9 1 
