@<TRIPOS>MOLECULE
C:\Users\Praveer\PycharmProjects\pdb_to_mol2_converter\data\pdb\th3p.pdb
   17    17     0     0     0
SMALL
GASTEIGER

@<TRIPOS>ATOM
      1 O4'         1.1690    0.2680   -0.6510 O.3       1 TH31        0.0000
      2 C1'         1.8440    1.3470   -0.0030 C.3       1 TH31        0.0000
      3 H11'        2.5350    1.8270   -0.7060 H         1 TH31        0.0000
      4 H12'        2.4160    0.9250    0.8390 H         1 TH31        0.0000
      5 C4'        -0.0580    0.0260    0.0600 C.3       1 TH31        0.0000
      6 H41'        0.0430   -0.9170    0.6170 H         1 TH31        0.0000
      7 H42'       -0.8590   -0.0980   -0.6790 H         1 TH31        0.0000
      8 C2'         0.7120    2.2370    0.4900 C.3       1 TH31        0.0000
      9 H21'        0.2850    2.8240   -0.3340 H         1 TH31        0.0000
     10 H22'        1.0280    2.9510    1.2630 H         1 TH31        0.0000
     11 C3'        -0.3000    1.2160    0.9930 C.3       1 TH31        0.0000
     12 H31'       -1.3400    1.5760    0.9210 H         1 TH31        0.0000
     13 O3'         0.0350    0.8440    2.3270 O.3       1 TH31        0.0000
     14 P          -0.5070    1.7210    3.5960 P.3       1 TH31        0.0000
     15 O1P         0.3400    2.9840    3.6080 O.3       1 TH31        0.0000
     16 O2P        -0.2710    0.8210    4.7980 O.3       1 TH31        0.0000
     17 O3P        -1.9790    1.9700    3.3020 O.2       1 TH31        0.0000
@<TRIPOS>BOND
     1    3    2 1 
     2    7    5 1 
     3    1    2 1 
     4    1    5 1 
     5    9    8 1 
     6    2    8 1 
     7    2    4 1 
     8    5    6 1 
     9    5   11 1 
    10    8   11 1 
    11    8   10 1 
    12   12   11 1 
    13   11   13 1 
    14   13   14 1 
    15   17   14 2 
    16   14   15 1 
    17   14   16 1 
