@<TRIPOS>MOLECULE
C:\Users\Praveer\PycharmProjects\pdb_to_mol2_converter\data\pdb\th5h.pdb
   17    17     0     0     0
SMALL
GASTEIGER

@<TRIPOS>ATOM
      1 O4'         1.4320    0.0290    0.0270 O.3       1 TH51        0.0000
      2 C1'         1.9110    1.3800    0.0220 C.3       1 TH51        0.0000
      3 H1'         2.5110    1.5080   -0.8930 H         1 TH51        0.0000
      4 H1''        2.5730    1.5290    0.8870 H         1 TH51        0.0000
      5 C4'        -0.0040    0.0010   -0.0200 C.3       1 TH51        0.0000
      6 H4''       -0.3370   -0.0770    1.0300 H         1 TH51        0.0000
      7 C2'         0.6740    2.2750    0.0290 C.3       1 TH51        0.0000
      8 H2'         0.8130    3.2180   -0.5160 H         1 TH51        0.0000
      9 H2''        0.4030    2.5360    1.0650 H         1 TH51        0.0000
     10 C3'        -0.3890    1.3620   -0.5810 C.3       1 TH51        0.0000
     11 H3'        -1.4170    1.6600   -0.3350 H         1 TH51        0.0000
     12 H3''       -0.3040    1.3590   -1.6800 H         1 TH51        0.0000
     13 C5'        -0.5410   -1.2140   -0.7980 C.3       1 TH51        0.0000
     14 H5'        -0.2820   -1.1000   -1.8740 H         1 TH51        0.0000
     15 H5''       -1.6470   -1.2690   -0.7060 H         1 TH51        0.0000
     16 O5'         0.0410   -2.4220   -0.3140 O.3       1 TH51        0.0000
     17 H5T         0.9830   -2.2230   -0.2320 H         1 TH51        0.0000
@<TRIPOS>BOND
     1   14   13 1 
     2   12   10 1 
     3    3    2 1 
     4   13   15 1 
     5   13   16 1 
     6   13    5 1 
     7   10   11 1 
     8   10    5 1 
     9   10    7 1 
    10    8    7 1 
    11   16   17 1 
    12    5    1 1 
    13    5    6 1 
    14    2    1 1 
    15    2    7 1 
    16    2    4 1 
    17    7    9 1 
