@<TRIPOS>MOLECULE
C:\Users\Praveer\PycharmProjects\pdb_to_mol2_converter\data\pdb\th5p.pdb
   20    20     0     0     0
SMALL
GASTEIGER

@<TRIPOS>ATOM
      1 O4'         1.4620    0.1330    0.3450 O.3       1 TH51        0.0000
      2 C1'         1.8710    1.4510   -0.0200 C.3       1 TH51        0.0000
      3 H1'         2.2670    1.3980   -1.0450 H         1 TH51        0.0000
      4 H1''        2.6780    1.7740    0.6510 H         1 TH51        0.0000
      5 C4'         0.0720   -0.0730    0.0250 C.3       1 TH51        0.0000
      6 H4''       -0.4220   -0.3110    0.9830 H         1 TH51        0.0000
      7 C2'         0.5940    2.2710    0.0680 C.3       1 TH51        0.0000
      8 H2'         0.6410    3.2210   -0.4800 H         1 TH51        0.0000
      9 H2''        0.3610    2.5010    1.1210 H         1 TH51        0.0000
     10 C3'        -0.4230    1.2780   -0.4920 C.3       1 TH51        0.0000
     11 H3'        -1.4600    1.4850   -0.2050 H         1 TH51        0.0000
     12 H3''       -0.3880    1.2690   -1.5940 H         1 TH51        0.0000
     13 C5'        -0.2080   -1.2410   -0.9380 C.3       1 TH51        0.0000
     14 H5'         0.3750   -1.1030   -1.8730 H         1 TH51        0.0000
     15 H5''       -1.2930   -1.2110   -1.1990 H         1 TH51        0.0000
     16 O5'         0.1400   -2.5080   -0.3500 O.3       1 TH51        0.0000
     17 P          -0.5450   -3.8590   -0.9860 P.3       1 TH51        0.0000
     18 O1P        -2.0400   -3.6730   -0.7670 O.3       1 TH51        0.0000
     19 O2P         0.0500   -5.0110   -0.1920 O.3       1 TH51        0.0000
     20 O3P        -0.1400   -3.8480   -2.4530 O.2       1 TH51        0.0000
@<TRIPOS>BOND
     1   20   17 2 
     2   14   13 1 
     3   12   10 1 
     4   15   13 1 
     5    3    2 1 
     6   17   18 1 
     7   17   16 1 
     8   17   19 1 
     9   13   16 1 
    10   13    5 1 
    11   10   11 1 
    12   10    5 1 
    13   10    7 1 
    14    8    7 1 
    15    2    7 1 
    16    2    1 1 
    17    2    4 1 
    18    5    1 1 
    19    5    6 1 
    20    7    9 1 
