@<TRIPOS>MOLECULE
C:\Users\Praveer\PycharmProjects\pdb_to_mol2_converter\data\pdb\tha.pdb
   61    60     0     0     0
SMALL
GASTEIGER

@<TRIPOS>ATOM
      1 O1         -0.0000   -0.0080    0.3120 O.co2     1 THA1        0.0000
      2 O2          1.9560   -1.0230    0.0230 O.co2     1 THA1        0.0000
      3 C1          1.2500    0.0080    0.1580 C.2       1 THA1        0.0000
      4 C2          1.9200    1.3840    0.1560 C.3       1 THA1        0.0000
      5 H2R         1.6380    1.8760    1.1080 H         1 THA1        0.0000
      6 H2S         1.4910    1.9660   -0.6820 H         1 THA1        0.0000
      7 C3          3.4620    1.3220    0.0520 C.3       1 THA1        0.0000
      8 H3R         3.7510    0.8650   -0.9190 H         1 THA1        0.0000
      9 H3S         3.8330    0.6460    0.8510 H         1 THA1        0.0000
     10 C4          4.1380    2.6880    0.2360 C.3       1 THA1        0.0000
     11 H4R         3.8160    3.0990    1.2180 H         1 THA1        0.0000
     12 H4S         3.7740    3.3750   -0.5570 H         1 THA1        0.0000
     13 C5          5.6770    2.5930    0.2060 C.3       1 THA1        0.0000
     14 H5R         5.9730    2.1350   -0.7630 H         1 THA1        0.0000
     15 H5S         5.9830    1.8850    1.0070 H         1 THA1        0.0000
     16 C6          6.3410    3.9380    0.3670 C.2       1 THA1        0.0000
     17 H6R         5.7640    4.7830   -0.0400 H         1 THA1        0.0000
     18 C7          7.5260    4.1850    0.9600 C.2       1 THA1        0.0000
     19 H7R         7.8800    5.2270    0.9990 H         1 THA1        0.0000
     20 C8          8.4450    3.1590    1.5830 C.3       1 THA1        0.0000
     21 H8R         9.0410    2.6690    0.7810 H         1 THA1        0.0000
     22 H8S         7.8550    2.3390    2.0470 H         1 THA1        0.0000
     23 C9          9.3950    3.7690    2.5900 C.2       1 THA1        0.0000
     24 H9R        10.2340    4.3310    2.1510 H         1 THA1        0.0000
     25 C10         9.3260    3.6580    3.9330 C.2       1 THA1        0.0000
     26 H10R       10.0930    4.1600    4.5420 H         1 THA1        0.0000
     27 C11         8.2630    2.9310    4.7230 C.3       1 THA1        0.0000
     28 H11R        7.3320    2.8430    4.1220 H         1 THA1        0.0000
     29 H11S        7.9760    3.5520    5.6000 H         1 THA1        0.0000
     30 C12         8.7440    1.5810    5.2080 C.2       1 THA1        0.0000
     31 H12R        9.6820    1.6120    5.7850 H         1 THA1        0.0000
     32 C13         8.1550    0.3830    5.0190 C.2       1 THA1        0.0000
     33 H13R        8.6500   -0.5110    5.4310 H         1 THA1        0.0000
     34 C14         6.8710    0.1030    4.2700 C.3       1 THA1        0.0000
     35 H14R        7.1230   -0.2810    3.2550 H         1 THA1        0.0000
     36 H14S        6.2970    1.0400    4.1030 H         1 THA1        0.0000
     37 C15         5.9740   -0.8960    4.9640 C.2       1 THA1        0.0000
     38 H15R        6.3230   -1.2910    5.9300 H         1 THA1        0.0000
     39 C16         4.7890   -1.3200    4.4830 C.2       1 THA1        0.0000
     40 H16R        4.1990   -2.0490    5.0610 H         1 THA1        0.0000
     41 C17         4.1600   -0.8780    3.1840 C.3       1 THA1        0.0000
     42 H17R        4.1070   -1.7400    2.4810 H         1 THA1        0.0000
     43 H17S        4.7990   -0.1340    2.6620 H         1 THA1        0.0000
     44 C18         2.7750   -0.2990    3.3450 C.2       1 THA1        0.0000
     45 H18R        1.9560   -0.9580    3.0090 H         1 THA1        0.0000
     46 C19         2.4660    0.9470    3.7590 C.2       1 THA1        0.0000
     47 H19R        1.4010    1.2320    3.7820 H         1 THA1        0.0000
     48 C20         3.4530    2.0200    4.1580 C.3       1 THA1        0.0000
     49 H20R        4.3840    1.9220    3.5580 H         1 THA1        0.0000
     50 H20S        3.7490    1.8600    5.2170 H         1 THA1        0.0000
     51 C21         2.9110    3.4220    3.9870 C.2       1 THA1        0.0000
     52 H21R        1.9550    3.4970    3.4420 H         1 THA1        0.0000
     53 C22         3.5000    4.5550    4.4080 C.2       1 THA1        0.0000
     54 H22R        2.9890    5.5140    4.2280 H         1 THA1        0.0000
     55 C23         4.8240    4.6720    5.1210 C.3       1 THA1        0.0000
     56 H23R        5.3070    3.6780    5.2490 H         1 THA1        0.0000
     57 H23S        4.6760    5.0890    6.1430 H         1 THA1        0.0000
     58 C24         5.7890    5.5840    4.3480 C.3       1 THA1        0.0000
     59 H24R        5.3900    6.6170    4.2710 H         1 THA1        0.0000
     60 H24S        5.9630    5.1940    3.3220 H         1 THA1        0.0000
     61 H24T        6.7710    5.6320    4.8640 H         1 THA1        0.0000
@<TRIPOS>BOND
     1    8    7 1 
     2   14   13 1 
     3    6    4 1 
     4   12   10 1 
     5   17   16 1 
     6    2    3 ar
     7    7    4 1 
     8    7   10 1 
     9    7    9 1 
    10    4    3 1 
    11    4    5 1 
    12    3    1 ar
    13   13   10 1 
    14   13   16 1 
    15   13   15 1 
    16   10   11 1 
    17   16   18 2 
    18   21   20 1 
    19   18   19 1 
    20   18   20 1 
    21   20   22 1 
    22   20   23 1 
    23   24   23 1 
    24   42   41 1 
    25   23   25 2 
    26   43   41 1 
    27   45   44 1 
    28   41   44 1 
    29   41   39 1 
    30   35   34 1 
    31   60   58 1 
    32   44   46 2 
    33   52   51 1 
    34   49   48 1 
    35   46   47 1 
    36   46   48 1 
    37   25   26 1 
    38   25   27 1 
    39   51   48 1 
    40   51   53 2 
    41   36   34 1 
    42   28   27 1 
    43   48   50 1 
    44   54   53 1 
    45   34   37 1 
    46   34   32 1 
    47   59   58 1 
    48   58   61 1 
    49   58   55 1 
    50   53   55 1 
    51   39   37 2 
    52   39   40 1 
    53   27   30 1 
    54   27   29 1 
    55   37   38 1 
    56   32   30 2 
    57   32   33 1 
    58   55   56 1 
    59   55   57 1 
    60   30   31 1 
