@<TRIPOS>MOLECULE
C:\Users\Praveer\PycharmProjects\pdb_to_mol2_converter\data\pdb\thao.pdb
   25    26     0     0     0
SMALL
GASTEIGER

@<TRIPOS>ATOM
      1 O4'         0.5070   -0.1180    1.1820 O.3       1 THA1        0.0000
      2 C4'         1.8620    0.2240    0.7690 C.3       1 THA1        0.0000
      3 H42'        2.5670   -0.1170    1.5570 H         1 THA1        0.0000
      4 C1'        -0.1320   -0.9370    0.2020 C.3       1 THA1        0.0000
      5 H12'       -0.1710   -1.9740    0.5990 H         1 THA1        0.0000
      6 C2'         0.7230   -0.8490   -1.0620 C.3       1 THA1        0.0000
      7 H21'        0.4040    0.0090   -1.6940 H         1 THA1        0.0000
      8 H22'        0.6740   -1.7800   -1.6620 H         1 THA1        0.0000
      9 H31'        2.6860    0.0600   -1.2290 H         1 THA1        0.0000
     10 C3'         2.1090   -0.5760   -0.5190 C.3       1 THA1        0.0000
     11 O3'         2.8000   -1.8100   -0.3270 O.3       1 THA1        0.0000
     12 H32'        2.3180   -2.3360    0.3170 H         1 THA1        0.0000
     13 C5'         1.9880    1.7430    0.5670 C.3       1 THA1        0.0000
     14 H51'        3.0560    1.9860    0.3700 H         1 THA1        0.0000
     15 H52'        1.6870    2.2490    1.5120 H         1 THA1        0.0000
     16 O5'         1.1760    2.2590   -0.5360 O.3       1 THA1        0.0000
     17 H5T         1.2370    3.2210   -0.5170 H         1 THA1        0.0000
     18 CG         -2.6620   -1.1370    0.2680 C.ar      1 THA1        0.0000
     19 HG         -2.6980   -2.1730    0.5680 H         1 THA1        0.0000
     20 CD2        -3.6770   -0.2580    0.0510 C.ar      1 THA1        0.0000
     21 HD2        -4.7480   -0.4040    0.1290 H         1 THA1        0.0000
     22 ND1        -1.4970   -0.4410    0.0310 N.ar      1 THA1        0.0000
     23 CE1        -1.8610    0.8200   -0.3100 C.ar      1 THA1        0.0000
     24 HE1        -1.1220    1.5920   -0.5270 H         1 THA1        0.0000
     25 NE2        -3.1740    0.9770   -0.3170 N.ar      1 THA1        0.0000
@<TRIPOS>BOND
     1    7    6 1 
     2    8    6 1 
     3    9   10 1 
     4    6   10 1 
     5    6    4 1 
     6   16   17 1 
     7   16   13 1 
     8   24   23 1 
     9   10   11 1 
    10   10    2 1 
    11   11   12 1 
    12   25   23 ar
    13   25   20 ar
    14   23   22 ar
    15   22    4 1 
    16   22   18 ar
    17   20   21 1 
    18   20   18 ar
    19    4    5 1 
    20    4    1 1 
    21   18   19 1 
    22   14   13 1 
    23   13    2 1 
    24   13   15 1 
    25    2    1 1 
    26    2    3 1 
