@<TRIPOS>MOLECULE
C:\Users\Praveer\PycharmProjects\pdb_to_mol2_converter\data\pdb\thap.pdb
   62    61     0     0     0
SMALL
GASTEIGER

@<TRIPOS>ATOM
      1 H1          0.0100    0.0360   -0.0350 H         1 THA1        0.0000
      2 O1          0.9650    0.0340   -0.0680 O.3       1 THA1        0.0000
      3 O2          0.5590    2.2410    0.0440 O.2       1 THA1        0.0000
      4 C1          1.3790    1.3450   -0.0210 C.2       1 THA1        0.0000
      5 C2          2.8960    1.4780   -0.0570 C.3       1 THA1        0.0000
      6 H2R         3.2560    1.0310   -1.0080 H         1 THA1        0.0000
      7 H2S         3.3230    0.9040    0.7910 H         1 THA1        0.0000
      8 C3          3.3500    2.9510    0.0220 C.3       1 THA1        0.0000
      9 H3R         3.0330    3.4010    0.9890 H         1 THA1        0.0000
     10 H3S         2.8570    3.5290   -0.7910 H         1 THA1        0.0000
     11 C4          4.8700    3.1020   -0.1360 C.3       1 THA1        0.0000
     12 H4R         5.1830    2.5750   -1.0660 H         1 THA1        0.0000
     13 H4S         5.3730    2.6050    0.7230 H         1 THA1        0.0000
     14 C5          5.3060    4.5760   -0.2220 C.3       1 THA1        0.0000
     15 H5R         4.9840    5.0960    0.7080 H         1 THA1        0.0000
     16 H5S         4.7610    5.0500   -1.0710 H         1 THA1        0.0000
     17 C6          6.7960    4.7150   -0.4080 C.2       1 THA1        0.0000
     18 H6R         7.3740    3.7860   -0.2900 H         1 THA1        0.0000
     19 C7          7.4440    5.8540   -0.7160 C.2       1 THA1        0.0000
     20 H7R         8.5390    5.8220   -0.8300 H         1 THA1        0.0000
     21 C8          6.8060    7.2080   -0.9220 C.3       1 THA1        0.0000
     22 H8R         6.8570    7.7820    0.0290 H         1 THA1        0.0000
     23 H8S         5.7190    7.1090   -1.1410 H         1 THA1        0.0000
     24 C9          7.4910    8.0060   -2.0060 C.2       1 THA1        0.0000
     25 H9R         8.3860    8.5590   -1.6800 H         1 THA1        0.0000
     26 C10         7.0940    8.1170   -3.2900 C.2       1 THA1        0.0000
     27 H10R        7.6910    8.7370   -3.9770 H         1 THA1        0.0000
     28 C11         5.9000    7.4380   -3.9190 C.3       1 THA1        0.0000
     29 H11R        5.5420    6.6060   -3.2740 H         1 THA1        0.0000
     30 H11S        6.2220    6.9540   -4.8670 H         1 THA1        0.0000
     31 C12         4.7850    8.4150   -4.2160 C.2       1 THA1        0.0000
     32 H12R        5.1100    9.3880   -4.6180 H         1 THA1        0.0000
     33 C13         3.4660    8.2080   -4.0330 C.2       1 THA1        0.0000
     34 H13R        2.7710    9.0250   -4.2810 H         1 THA1        0.0000
     35 C14         2.8200    6.9490   -3.5040 C.3       1 THA1        0.0000
     36 H14R        2.6500    7.0730   -2.4110 H         1 THA1        0.0000
     37 H14S        3.5050    6.0790   -3.6070 H         1 THA1        0.0000
     38 C15         1.5010    6.6210   -4.1650 C.2       1 THA1        0.0000
     39 H15R        1.0900    7.3860   -4.8420 H         1 THA1        0.0000
     40 C16         0.8200    5.4690   -4.0030 C.2       1 THA1        0.0000
     41 H16R       -0.1320    5.3360   -4.5390 H         1 THA1        0.0000
     42 C17         1.2300    4.3130   -3.1210 C.3       1 THA1        0.0000
     43 H17R        0.4360    4.1240   -2.3640 H         1 THA1        0.0000
     44 H17S        2.1300    4.5780   -2.5280 H         1 THA1        0.0000
     45 C18         1.4660    3.0500   -3.9150 C.2       1 THA1        0.0000
     46 H18R        0.5500    2.5200   -4.2210 H         1 THA1        0.0000
     47 C19         2.6590    2.5310   -4.2660 C.2       1 THA1        0.0000
     48 H19R        2.6730    1.6080   -4.8670 H         1 THA1        0.0000
     49 C20         4.0120    3.1200   -3.9390 C.3       1 THA1        0.0000
     50 H20R        3.9990    3.5780   -2.9260 H         1 THA1        0.0000
     51 H20S        4.2110    3.9570   -4.6460 H         1 THA1        0.0000
     52 C21         5.1350    2.1110   -3.9960 C.2       1 THA1        0.0000
     53 H21R        4.8500    1.0630   -3.8090 H         1 THA1        0.0000
     54 C22         6.4240    2.3900   -4.2670 C.2       1 THA1        0.0000
     55 H22R        7.1560    1.5680   -4.2900 H         1 THA1        0.0000
     56 C23         6.9970    3.7620   -4.5170 C.3       1 THA1        0.0000
     57 H23R        6.3470    4.5580   -4.0860 H         1 THA1        0.0000
     58 H23S        7.0650    3.9540   -5.6110 H         1 THA1        0.0000
     59 C24         8.3970    3.9000   -3.9010 C.3       1 THA1        0.0000
     60 H24R        9.1080    3.1800   -4.3620 H         1 THA1        0.0000
     61 H24S        8.3660    3.7180   -2.8050 H         1 THA1        0.0000
     62 H24T        8.7860    4.9280   -4.0680 H         1 THA1        0.0000
@<TRIPOS>BOND
     1   58   56 1 
     2   48   47 1 
     3   30   28 1 
     4   39   38 1 
     5   51   49 1 
     6   32   31 1 
     7   41   40 1 
     8   56   54 1 
     9   56   57 1 
    10   56   59 1 
    11   60   59 1 
    12   55   54 1 
    13   34   33 1 
    14   54   52 2 
    15   47   49 1 
    16   47   45 2 
    17   46   45 1 
    18   31   33 2 
    19   31   28 1 
    20   38   40 2 
    21   38   35 1 
    22   62   59 1 
    23   33   35 1 
    24   40   42 1 
    25   52   49 1 
    26   52   53 1 
    27   27   26 1 
    28   49   50 1 
    29   28   26 1 
    30   28   29 1 
    31   45   42 1 
    32   59   61 1 
    33   37   35 1 
    34   35   36 1 
    35   26   24 2 
    36   42   44 1 
    37   42   43 1 
    38   24   25 1 
    39   24   21 1 
    40   23   21 1 
    41   16   14 1 
    42   12   11 1 
    43    6    5 1 
    44   21   19 1 
    45   21   22 1 
    46   20   19 1 
    47   10    8 1 
    48   19   17 2 
    49   17   18 1 
    50   17   14 1 
    51   14   11 1 
    52   14   15 1 
    53   11    8 1 
    54   11   13 1 
    55    2    1 1 
    56    2    4 1 
    57    5    4 1 
    58    5    8 1 
    59    5    7 1 
    60    4    3 2 
    61    8    9 1 
