@<TRIPOS>MOLECULE
C:\Users\Praveer\PycharmProjects\pdb_to_mol2_converter\data\pdb\thaz.pdb
    8     8     0     0     0
SMALL
GASTEIGER

@<TRIPOS>ATOM
      1 C1         -0.0500   -0.0710    0.0000 C.ar      1 THA1        0.0000
      2 H1         -0.6890   -0.9420    0.0000 H         1 THA1        0.0000
      3 C2          1.3220    0.0020   -0.0000 C.ar      1 THA1        0.0000
      4 H2          2.0280   -0.8230   -0.0000 H         1 THA1        0.0000
      5 N3          1.8500    1.3040   -0.0000 N.ar      1 THA1        0.0000
      6 C4          0.8480    2.1720   -0.0000 C.ar      1 THA1        0.0000
      7 H4          0.9510    3.2580   -0.0000 H         1 THA1        0.0000
      8 S5         -0.7160    1.5040    0.0000 S.2       1 THA1        0.0000
@<TRIPOS>BOND
     1    1    2 1 
     2    1    3 ar
     3    1    8 ar
     4    3    4 1 
     5    3    5 ar
     6    5    6 ar
     7    6    7 1 
     8    6    8 ar
