@<TRIPOS>MOLECULE
C:\Users\Praveer\PycharmProjects\pdb_to_mol2_converter\data\pdb\thf.pdb
   13    13     0     0     0
SMALL
GASTEIGER

@<TRIPOS>ATOM
      1 O4'         1.4400   -0.0220   -0.0300 O.3       1 THF1        0.0000
      2 C4'         1.9130    1.3220   -0.0030 C.3       1 THF1        0.0000
      3 C3'         0.9680    2.0240    0.9720 C.3       1 THF1        0.0000
      4 C2'        -0.3010    1.1520    0.9720 C.3       1 THF1        0.0000
      5 C1'         0.0160    0.0180   -0.0030 C.3       1 THF1        0.0000
      6 H11'       -0.3680   -0.9650    0.3010 H         1 THF1        0.0000
      7 H12'       -0.3300    0.2330   -1.0250 H         1 THF1        0.0000
      8 H21'       -1.2010    1.7090    0.6800 H         1 THF1        0.0000
      9 H22'       -0.4870    0.7510    1.9820 H         1 THF1        0.0000
     10 H31'        0.7710    3.0640    0.6800 H         1 THF1        0.0000
     11 H32'        1.4090    2.0540    1.9820 H         1 THF1        0.0000
     12 H41'        1.8370    1.7220   -1.0250 H         1 THF1        0.0000
     13 H42'        2.9690    1.3280    0.3010 H         1 THF1        0.0000
@<TRIPOS>BOND
     1    7    5 1 
     2   12    2 1 
     3    1    2 1 
     4    1    5 1 
     5    2   13 1 
     6    2    3 1 
     7    5    6 1 
     8    5    4 1 
     9    8    4 1 
    10   10    3 1 
    11    3    4 1 
    12    3   11 1 
    13    4    9 1 
