@<TRIPOS>MOLECULE
C:\Users\Praveer\PycharmProjects\pdb_to_mol2_converter\data\pdb\thf2.pdb
   17    17     0     0     0
SMALL
GASTEIGER

@<TRIPOS>ATOM
      1 O4'         1.4260   -0.0940    0.2930 O.3       1 THF1        0.0000
      2 C4'         2.0240    1.1810    0.0820 C.3       1 THF1        0.0000
      3 C3'         0.9810    2.1580    0.6250 C.3       1 THF1        0.0000
      4 C1'         0.0380    0.0250   -0.0250 C.3       1 THF1        0.0000
      5 H11'       -0.5120   -0.7730    0.4910 H         1 THF1        0.0000
      6 H12'       -0.0740   -0.1210   -1.1100 H         1 THF1        0.0000
      7 H31'        1.0440    3.1320    0.1250 H         1 THF1        0.0000
      8 H32'        1.1480    2.3370    1.6980 H         1 THF1        0.0000
      9 H41'        2.1850    1.2990   -1.0010 H         1 THF1        0.0000
     10 H42'        2.9960    1.2180    0.5910 H         1 THF1        0.0000
     11 C2'        -0.3600    1.4320    0.4200 C.3       1 THF1        0.0000
     12 H21'       -0.9490    1.4190    1.3500 H         1 THF1        0.0000
     13 O2'        -1.0950    2.0560   -0.6320 O.3       1 THF1        0.0000
     14 CM         -1.6380    3.3100   -0.2290 C.3       1 THF1        0.0000
     15 HM1        -1.0040    4.1270   -0.6370 H         1 THF1        0.0000
     16 HM2        -1.6890    3.4160    0.8760 H         1 THF1        0.0000
     17 HM3        -2.6540    3.4280   -0.6640 H         1 THF1        0.0000
@<TRIPOS>BOND
     1    6    4 1 
     2    9    2 1 
     3   17   14 1 
     4   15   14 1 
     5   13   14 1 
     6   13   11 1 
     7   14   16 1 
     8    4    1 1 
     9    4   11 1 
    10    4    5 1 
    11    2    1 1 
    12    2   10 1 
    13    2    3 1 
    14    7    3 1 
    15   11    3 1 
    16   11   12 1 
    17    3    8 1 
