@<TRIPOS>MOLECULE
C:\Users\Praveer\PycharmProjects\pdb_to_mol2_converter\data\pdb\thfa.pdb
   24    25     0     0     0
SMALL
GASTEIGER

@<TRIPOS>ATOM
      1 O4'        -0.5020    1.1130   -0.6190 O.3       1 THF1        0.0000
      2 C4'         0.3660    2.2670   -0.6080 C.3       1 THF1        0.0000
      3 H42'       -0.0880    3.0610    0.0240 H         1 THF1        0.0000
      4 C1'         0.2050   -0.0490   -0.1800 C.3       1 THF1        0.0000
      5 H12'       -0.1330   -0.2530    0.8600 H         1 THF1        0.0000
      6 C2'         1.6930    0.3030   -0.2210 C.3       1 THF1        0.0000
      7 H21'        2.1070    0.1110   -1.2350 H         1 THF1        0.0000
      8 H22'        2.2720   -0.2770    0.5240 H         1 THF1        0.0000
      9 H31'        2.5240    2.2850   -0.4970 H         1 THF1        0.0000
     10 C3'         1.6800    1.7900    0.0370 C.3       1 THF1        0.0000
     11 O3'         1.7930    2.0640    1.4340 O.3       1 THF1        0.0000
     12 H32'        2.5370    1.5860    1.8040 H         1 THF1        0.0000
     13 C5'         0.5290    2.7350   -2.0430 C.3       1 THF1        0.0000
     14 H51'       -0.4610    3.0270   -2.4560 H         1 THF1        0.0000
     15 H52'        0.9520    1.9300   -2.6800 H         1 THF1        0.0000
     16 H53'        1.2020    3.6150   -2.0870 H         1 THF1        0.0000
     17 CG         -0.4410   -1.1020   -2.3880 C.ar      1 THF1        0.0000
     18 HG         -0.6910   -0.1800   -2.8890 H         1 THF1        0.0000
     19 CD2        -0.3170   -2.3620   -2.8780 C.ar      1 THF1        0.0000
     20 HD2        -0.4430   -2.7170   -3.8940 H         1 THF1        0.0000
     21 ND1        -0.1710   -1.1820   -1.0360 N.ar      1 THF1        0.0000
     22 CE1         0.0990   -2.4860   -0.7840 C.ar      1 THF1        0.0000
     23 HE1         0.3770   -2.8510    0.2030 H         1 THF1        0.0000
     24 NE2         0.0280   -3.2370   -1.8670 N.ar      1 THF1        0.0000
@<TRIPOS>BOND
     1   20   19 1 
     2   18   17 1 
     3   19   17 ar
     4   19   24 ar
     5   15   13 1 
     6   14   13 1 
     7   17   21 ar
     8   16   13 1 
     9   13    2 1 
    10   24   22 ar
    11    7    6 1 
    12   21   22 ar
    13   21    4 1 
    14   22   23 1 
    15    1    2 1 
    16    1    4 1 
    17    2    3 1 
    18    2   10 1 
    19    9   10 1 
    20    6    4 1 
    21    6   10 1 
    22    6    8 1 
    23    4    5 1 
    24   10   11 1 
    25   11   12 1 
