@<TRIPOS>MOLECULE
C:\Users\Praveer\PycharmProjects\pdb_to_mol2_converter\data\pdb\thfc.pdb
   17    17     0     0     0
SMALL
GASTEIGER

@<TRIPOS>ATOM
      1 O4'         0.5680    1.5780   -0.5680 O.3       1 THF1        0.0000
      2 C1'         1.8660    1.4470    0.0150 C.3       1 THF1        0.0000
      3 H11'        1.8520    1.9470    0.9950 H         1 THF1        0.0000
      4 H12'        2.5950    1.9670   -0.6240 H         1 THF1        0.0000
      5 C4'        -0.2500    0.5090   -0.0920 C.3       1 THF1        0.0000
      6 H42'       -1.0580    0.3550   -0.8240 H         1 THF1        0.0000
      7 C2'         2.1020   -0.0640    0.1200 C.3       1 THF1        0.0000
      8 H21'        2.5600   -0.3330    1.0820 H         1 THF1        0.0000
      9 H22'        2.7950   -0.4100   -0.6610 H         1 THF1        0.0000
     10 H31'        0.6840   -1.1850   -1.0720 H         1 THF1        0.0000
     11 C3'         0.7210   -0.6840   -0.0900 C.3       1 THF1        0.0000
     12 O3'         0.4080   -1.6370    0.9210 O.3       1 THF1        0.0000
     13 H32'        0.3820   -1.1850    1.7680 H         1 THF1        0.0000
     14 C5'        -0.8610    0.9070    1.2590 C.3       1 THF1        0.0000
     15 H51'       -1.4700    1.8290    1.1390 H         1 THF1        0.0000
     16 H52'       -0.0730    1.1060    2.0120 H         1 THF1        0.0000
     17 H53'       -1.5240    0.0990    1.6350 H         1 THF1        0.0000
@<TRIPOS>BOND
     1   10   11 1 
     2    6    5 1 
     3    9    7 1 
     4    4    2 1 
     5    1    5 1 
     6    1    2 1 
     7    5   11 1 
     8    5   14 1 
     9   11    7 1 
    10   11   12 1 
    11    2    7 1 
    12    2    3 1 
    13    7    8 1 
    14   12   13 1 
    15   15   14 1 
    16   14   17 1 
    17   14   16 1 
