@<TRIPOS>MOLECULE
C:\Users\Praveer\PycharmProjects\pdb_to_mol2_converter\data\pdb\thfi.pdb
   20    21     0     0     0
SMALL
GASTEIGER

@<TRIPOS>ATOM
      1 O4'        -0.2920    1.1380   -0.6970 O.3       1 THF1        0.0000
      2 C1'         0.2970   -0.0770   -0.2070 C.3       1 THF1        0.0000
      3 H12'       -0.1330   -0.2650    0.8010 H         1 THF1        0.0000
      4 C4'         0.7140    2.1740   -0.7610 C.3       1 THF1        0.0000
      5 H41'        0.2830    3.1520   -0.4540 H         1 THF1        0.0000
      6 H42'        1.1340    2.2130   -1.7900 H         1 THF1        0.0000
      7 C2'         1.7950    0.2130   -0.1370 C.3       1 THF1        0.0000
      8 H21'        2.2730    0.0650   -1.1300 H         1 THF1        0.0000
      9 H22'        2.3070   -0.4070    0.6270 H         1 THF1        0.0000
     10 C3'         1.7620    1.6810    0.2270 C.3       1 THF1        0.0000
     11 H31'        1.3880    1.8490    1.2590 H         1 THF1        0.0000
     12 H32'        2.7340    2.1900    0.0690 H         1 THF1        0.0000
     13 CG         -0.3710   -1.1110   -2.4320 C.ar      1 THF1        0.0000
     14 HG         -0.5440   -0.1810   -2.9530 H         1 THF1        0.0000
     15 CD2        -0.4040   -2.3890   -2.8920 C.ar      1 THF1        0.0000
     16 HD2        -0.6080   -2.7570   -3.8900 H         1 THF1        0.0000
     17 ND1        -0.0760   -1.1940   -1.0870 N.ar      1 THF1        0.0000
     18 CE1         0.0580   -2.5140   -0.8050 C.ar      1 THF1        0.0000
     19 HE1         0.3080   -2.8810    0.1900 H         1 THF1        0.0000
     20 NE2        -0.1300   -3.2760   -1.8670 N.ar      1 THF1        0.0000
@<TRIPOS>BOND
     1   16   15 1 
     2   14   13 1 
     3   15   13 ar
     4   15   20 ar
     5   13   17 ar
     6   20   18 ar
     7    6    4 1 
     8    8    7 1 
     9   17   18 ar
    10   17    2 1 
    11   18   19 1 
    12    4    1 1 
    13    4    5 1 
    14    4   10 1 
    15    1    2 1 
    16    2    7 1 
    17    2    3 1 
    18    7   10 1 
    19    7    9 1 
    20   12   10 1 
    21   10   11 1 
