@<TRIPOS>MOLECULE
C:\Users\Praveer\PycharmProjects\pdb_to_mol2_converter\data\pdb\thfm.pdb
   16    16     0     0     0
SMALL
GASTEIGER

@<TRIPOS>ATOM
      1 O4'         1.4820    0.1350   -0.0780 O.3       1 THF1        0.0000
      2 C1'         2.0210    1.4550   -0.0360 C.3       1 THF1        0.0000
      3 C2'         1.2130    2.1150    1.0710 C.3       1 THF1        0.0000
      4 C3'        -0.1790    1.4810    0.9010 C.3       1 THF1        0.0000
      5 C4'         0.0670    0.1970    0.1080 C.3       1 THF1        0.0000
      6 H11'        1.8510    1.9210   -1.0190 H         1 THF1        0.0000
      7 H12'        3.1040    1.3970    0.1510 H         1 THF1        0.0000
      8 H21'        1.2080    3.2160    1.0150 H         1 THF1        0.0000
      9 H22'        1.6380    1.8430    2.0550 H         1 THF1        0.0000
     10 H31'       -0.8520    2.1460    0.3280 H         1 THF1        0.0000
     11 H32'       -0.6710    1.2900    1.8690 H         1 THF1        0.0000
     12 H42'       -0.2130   -0.6990    0.6880 H         1 THF1        0.0000
     13 C5'        -0.6400    0.1860   -1.2470 C.3       1 THF1        0.0000
     14 H51'       -0.4540   -0.7700   -1.7810 H         1 THF1        0.0000
     15 H52'       -0.2650    1.0200   -1.8790 H         1 THF1        0.0000
     16 H53'       -1.7350    0.3120   -1.1100 H         1 THF1        0.0000
@<TRIPOS>BOND
     1   15   13 1 
     2   14   13 1 
     3   13   16 1 
     4   13    5 1 
     5    6    2 1 
     6    1    2 1 
     7    1    5 1 
     8    2    7 1 
     9    2    3 1 
    10    5   12 1 
    11    5    4 1 
    12   10    4 1 
    13    4    3 1 
    14    4   11 1 
    15    8    3 1 
    16    3    9 1 
