@<TRIPOS>MOLECULE
C:\Users\Praveer\PycharmProjects\pdb_to_mol2_converter\data\pdb\thfo.pdb
   14    14     0     0     0
SMALL
GASTEIGER

@<TRIPOS>ATOM
      1 O4'         1.4830    0.0220    0.0020 O.3       1 THF1        0.0000
      2 C1'         1.8330    1.4010   -0.1050 C.3       1 THF1        0.0000
      3 C2'         0.7660    2.1480    0.7060 C.3       1 THF1        0.0000
      4 C4'         0.0570   -0.0650    0.0610 C.3       1 THF1        0.0000
      5 H11'        1.8080    1.6660   -1.1730 H         1 THF1        0.0000
      6 H12'        2.8590    1.5400    0.2630 H         1 THF1        0.0000
      7 H21'        0.4210    3.0480    0.1780 H         1 THF1        0.0000
      8 H22'        1.1780    2.4970    1.6640 H         1 THF1        0.0000
      9 H41'       -0.2240   -1.0410    0.4820 H         1 THF1        0.0000
     10 H42'       -0.3290   -0.0100   -0.9670 H         1 THF1        0.0000
     11 C3'        -0.3640    1.1350    0.8980 C.3       1 THF1        0.0000
     12 H31'       -1.3430    1.5310    0.5870 H         1 THF1        0.0000
     13 O3'        -0.4460    0.7570    2.2650 O.3       1 THF1        0.0000
     14 H32'        0.3970    0.3550    2.4970 H         1 THF1        0.0000
@<TRIPOS>BOND
     1    5    2 1 
     2   10    4 1 
     3    2    1 1 
     4    2    6 1 
     5    2    3 1 
     6    1    4 1 
     7    4    9 1 
     8    4   11 1 
     9    7    3 1 
    10   12   11 1 
    11    3   11 1 
    12    3    8 1 
    13   11   13 1 
    14   13   14 1 
