@<TRIPOS>MOLECULE
C:\Users\Praveer\PycharmProjects\pdb_to_mol2_converter\data\pdb\thip.pdb
    9     9     0     0     0
SMALL
GASTEIGER

@<TRIPOS>ATOM
      1 C1          1.7920   -0.0720    0.0000 C.ar      1 THI1        0.0000
      2 H1          2.4270   -0.9490    0.0000 H         1 THI1        0.0000
      3 C2          2.1390    1.2510   -0.0000 C.ar      1 THI1        0.0000
      4 H2          3.1650    1.5960   -0.0000 H         1 THI1        0.0000
      5 C3          1.0550    2.1020   -0.0000 C.ar      1 THI1        0.0000
      6 H3          1.1460    3.1810   -0.0000 H         1 THI1        0.0000
      7 C4         -0.1480    1.4520   -0.0000 C.ar      1 THI1        0.0000
      8 H4         -1.1510    1.8610   -0.0000 H         1 THI1        0.0000
      9 S5          0.0880   -0.2430    0.0000 S.2       1 THI1        0.0000
@<TRIPOS>BOND
     1    1    2 1 
     2    1    3 ar
     3    1    9 ar
     4    3    4 1 
     5    3    5 ar
     6    5    6 1 
     7    5    7 ar
     8    7    8 1 
     9    7    9 ar
