@<TRIPOS>MOLECULE
C:\Users\Praveer\PycharmProjects\pdb_to_mol2_converter\data\pdb\thmi.pdb
   23    24     0     0     0
SMALL
GASTEIGER

@<TRIPOS>ATOM
      1 O4'        -0.4650    1.1130   -0.5280 O.3       1 THM1        0.0000
      2 C1'         0.2440   -0.0770   -0.1520 C.3       1 THM1        0.0000
      3 H12'       -0.0440   -0.3140    0.8970 H         1 THM1        0.0000
      4 C4'         0.4500    2.2170   -0.6840 C.3       1 THM1        0.0000
      5 H42'        0.0150    3.1250   -0.2100 H         1 THM1        0.0000
      6 C2'         1.7250    0.2830   -0.2580 C.3       1 THM1        0.0000
      7 H21'        2.1050    0.1180   -1.2900 H         1 THM1        0.0000
      8 H22'        2.3450   -0.2940    0.4570 H         1 THM1        0.0000
      9 C3'         1.6830    1.7580    0.0800 C.3       1 THM1        0.0000
     10 H31'        1.5020    1.9260    1.1630 H         1 THM1        0.0000
     11 H32'        2.5850    2.3090   -0.2580 H         1 THM1        0.0000
     12 C5'         0.7210    2.4270   -2.1590 C.3       1 THM1        0.0000
     13 H51'       -0.2140    2.7440   -2.6680 H         1 THM1        0.0000
     14 H52'        1.0730    1.4940   -2.6470 H         1 THM1        0.0000
     15 H53'        1.4850    3.2200   -2.3020 H         1 THM1        0.0000
     16 CG         -0.4910   -1.0680   -2.3660 C.ar      1 THM1        0.0000
     17 HG         -0.7780   -0.1420   -2.8420 H         1 THM1        0.0000
     18 CD2        -0.3720   -2.3140   -2.8940 C.ar      1 THM1        0.0000
     19 HD2        -0.5220   -2.6510   -3.9120 H         1 THM1        0.0000
     20 ND1        -0.1800   -1.1830   -1.0240 N.ar      1 THM1        0.0000
     21 CE1         0.0960   -2.4950   -0.8160 C.ar      1 THM1        0.0000
     22 HE1         0.3840   -2.8880    0.1590 H         1 THM1        0.0000
     23 NE2         0.0010   -3.2150   -1.9160 N.ar      1 THM1        0.0000
@<TRIPOS>BOND
     1   19   18 1 
     2   18   16 ar
     3   18   23 ar
     4   17   16 1 
     5   13   12 1 
     6   14   12 1 
     7   16   20 ar
     8   15   12 1 
     9   12    4 1 
    10   23   21 ar
    11    7    6 1 
    12   20   21 ar
    13   20    2 1 
    14   21   22 1 
    15    4    1 1 
    16    4    5 1 
    17    4    9 1 
    18    1    2 1 
    19    6    2 1 
    20    6    9 1 
    21    6    8 1 
    22   11    9 1 
    23    2    3 1 
    24    9   10 1 
