@<TRIPOS>MOLECULE
C:\Users\Praveer\PycharmProjects\pdb_to_mol2_converter\data\pdb\thni.pdb
   26    27     0     0     0
SMALL
GASTEIGER

@<TRIPOS>ATOM
      1 O4'        -0.0520    1.4430   -0.8710 O.3       1 THN1        0.0000
      2 C4'         0.9620    2.3960   -0.5290 C.3       1 THN1        0.0000
      3 H42'        0.5080    3.0930    0.1910 H         1 THN1        0.0000
      4 C1'         0.2570    0.1550   -0.3280 C.3       1 THN1        0.0000
      5 H12'       -0.2870    0.0810    0.6310 H         1 THN1        0.0000
      6 C2'         1.7640    0.1580   -0.0800 C.3       1 THN1        0.0000
      7 H21'        2.3140   -0.2610   -0.9360 H         1 THN1        0.0000
      8 H22'        2.0350   -0.4700    0.7780 H         1 THN1        0.0000
      9 CG         -0.5320   -0.7080   -2.6060 C.ar      1 THN1        0.0000
     10 HG         -0.5390    0.2580   -3.0880 H         1 THN1        0.0000
     11 CD2        -0.8330   -1.9440   -3.0880 C.ar      1 THN1        0.0000
     12 HD2        -1.1470   -2.2390   -4.0840 H         1 THN1        0.0000
     13 ND1        -0.1920   -0.8850   -1.2790 N.ar      1 THN1        0.0000
     14 CE1        -0.3020   -2.2250   -1.0320 C.ar      1 THN1        0.0000
     15 HE1        -0.0800   -2.6650   -0.0570 H         1 THN1        0.0000
     16 NE2        -0.6910   -2.9030   -2.0990 N.ar      1 THN1        0.0000
     17 H31'        3.0870    1.8530   -0.4150 H         1 THN1        0.0000
     18 C3'         2.1350    1.6210    0.0910 C.3       1 THN1        0.0000
     19 N1          2.2480    1.8750    1.5530 N.3       1 THN1        0.0000
     20 H1          1.5610    2.5320    1.9100 H         1 THN1        0.0000
     21 H2          3.1520    2.2430    1.8260 H         1 THN1        0.0000
     22 C5'         1.3300    3.1830   -1.7920 C.3       1 THN1        0.0000
     23 H51'        1.5630    2.4960   -2.6190 H         1 THN1        0.0000
     24 H52'        2.2080    3.8080   -1.6050 H         1 THN1        0.0000
     25 O5'         0.2840    4.0330   -2.2170 O.3       1 THN1        0.0000
     26 H5'        -0.4950    3.4770   -2.2770 H         1 THN1        0.0000
@<TRIPOS>BOND
     1   12   11 1 
     2   10    9 1 
     3   11    9 ar
     4   11   16 ar
     5   23   22 1 
     6    9   13 ar
     7   26   25 1 
     8   25   22 1 
     9   16   14 ar
    10   22   24 1 
    11   22    2 1 
    12   13   14 ar
    13   13    4 1 
    14   14   15 1 
    15    7    6 1 
    16    1    2 1 
    17    1    4 1 
    18    2   18 1 
    19    2    3 1 
    20   17   18 1 
    21    4    6 1 
    22    4    5 1 
    23    6   18 1 
    24    6    8 1 
    25   18   19 1 
    26   19   21 1 
    27   19   20 1 
