@<TRIPOS>MOLECULE
C:\Users\Praveer\PycharmProjects\pdb_to_mol2_converter\data\pdb\thnp.pdb
   33    34     0     0     0
SMALL
GASTEIGER

@<TRIPOS>ATOM
      1 O4'         1.2440   -0.0540   -0.1310 O.3       1 THN1        0.0000
      2 C4'        -0.1670   -0.1110    0.1680 C.3       1 THN1        0.0000
      3 H42'       -0.3630   -1.0850    0.6460 H         1 THN1        0.0000
      4 C1'         1.7380    1.2860    0.0470 C.3       1 THN1        0.0000
      5 H12'        2.5330    1.2300    0.8130 H         1 THN1        0.0000
      6 C2'         0.5590    2.1040    0.5870 C.3       1 THN1        0.0000
      7 H21'        0.0680    2.6640   -0.2260 H         1 THN1        0.0000
      8 H22'        0.8640    2.8660    1.3130 H         1 THN1        0.0000
      9 CG          2.4240    1.0810   -2.4190 C.ar      1 THN1        0.0000
     10 HG          2.1400    0.0450   -2.5300 H         1 THN1        0.0000
     11 CD2         2.9540    1.9530   -3.3200 C.ar      1 THN1        0.0000
     12 HD2         3.2100    1.7930   -4.3610 H         1 THN1        0.0000
     13 ND1         2.2820    1.7850   -1.2400 N.ar      1 THN1        0.0000
     14 CE1         2.7420    3.0490   -1.4930 C.ar      1 THN1        0.0000
     15 HE1         2.7430    3.8340   -0.7360 H         1 THN1        0.0000
     16 NE2         3.1580    3.1940   -2.7410 N.ar      1 THN1        0.0000
     17 C5'        -0.9960   -0.0450   -1.1310 C.3       1 THN1        0.0000
     18 H51'       -0.9670    0.9930   -1.5320 H         1 THN1        0.0000
     19 H52'       -2.0560   -0.3050   -0.9190 H         1 THN1        0.0000
     20 O5'        -0.4600   -0.9220   -2.1190 O.3       1 THN1        0.0000
     21 H5'         0.4750   -0.9700   -1.8800 H         1 THN1        0.0000
     22 H31'       -1.4720    1.4110    1.0210 H         1 THN1        0.0000
     23 C3'        -0.4250    1.0660    1.1180 C.3       1 THN1        0.0000
     24 N1         -0.1640    0.6710    2.4910 N.3       1 THN1        0.0000
     25 H1          0.7710    0.2760    2.5530 H         1 THN1        0.0000
     26 P1         -0.3880    1.8630    3.6920 P.3       1 THN1        0.0000
     27 O3         -0.7030    1.1880    4.9980 O.3       1 THN1        0.0000
     28 O4         -1.2640    2.9620    3.1560 O.2       1 THN1        0.0000
     29 O5          1.1440    2.4120    3.7660 O.3       1 THN1        0.0000
     30 C5          2.1780    1.5950    4.3120 C.3       1 THN1        0.0000
     31 H51         2.5650    0.8940    3.5410 H         1 THN1        0.0000
     32 H52         1.8300    1.0050    5.1940 H         1 THN1        0.0000
     33 H53         3.0200    2.2380    4.6520 H         1 THN1        0.0000
@<TRIPOS>BOND
     1   12   11 1 
     2   11   16 ar
     3   11    9 ar
     4   16   14 ar
     5   10    9 1 
     6    9   13 ar
     7   20   21 1 
     8   20   17 1 
     9   18   17 1 
    10   14   13 ar
    11   14   15 1 
    12   13    4 1 
    13   17   19 1 
    14   17    2 1 
    15    7    6 1 
    16    1    4 1 
    17    1    2 1 
    18    4    6 1 
    19    4    5 1 
    20    2    3 1 
    21    2   23 1 
    22    6   23 1 
    23    6    8 1 
    24   22   23 1 
    25   23   24 1 
    26   24   25 1 
    27   24   26 1 
    28   28   26 2 
    29   31   30 1 
    30   26   29 1 
    31   26   27 1 
    32   29   30 1 
    33   30   33 1 
    34   30   32 1 
