@<TRIPOS>MOLECULE
C:\Users\Praveer\PycharmProjects\pdb_to_mol2_converter\data\pdb\thp.pdb
   16    16     0     0     0
SMALL
GASTEIGER

@<TRIPOS>ATOM
      1 O1          1.4010    0.0180   -0.0370 O.3       1 THP1        0.0000
      2 C2          1.9080    1.3460   -0.0010 C.3       1 THP1        0.0000
      3 H21         3.0190    1.3070    0.0180 H         1 THP1        0.0000
      4 H22         1.5670    1.8480    0.9300 H         1 THP1        0.0000
      5 C6         -0.0200   -0.0050   -0.0010 C.3       1 THP1        0.0000
      6 H61        -0.3750    0.4870    0.9310 H         1 THP1        0.0000
      7 H62        -0.3620   -1.0630    0.0180 H         1 THP1        0.0000
      8 C3          1.4420    2.1480   -1.2260 C.3       1 THP1        0.0000
      9 H31         1.8810    1.6680   -2.1300 H         1 THP1        0.0000
     10 H32         1.8200    3.1910   -1.1710 H         1 THP1        0.0000
     11 C4         -0.0840    2.1380   -1.3650 C.3       1 THP1        0.0000
     12 H41        -0.3950    2.5810   -2.3360 H         1 THP1        0.0000
     13 H42        -0.5190    2.7580   -0.5480 H         1 THP1        0.0000
     14 C5         -0.6140    0.7070   -1.2260 C.3       1 THP1        0.0000
     15 H51        -1.7240    0.7070   -1.1700 H         1 THP1        0.0000
     16 H52        -0.3130    0.1300   -2.1300 H         1 THP1        0.0000
@<TRIPOS>BOND
     1   12   11 1 
     2    9    8 1 
     3   16   14 1 
     4   11    8 1 
     5   11   14 1 
     6   11   13 1 
     7    8   10 1 
     8    8    2 1 
     9   14   15 1 
    10   14    5 1 
    11    1    2 1 
    12    1    5 1 
    13    2    3 1 
    14    2    4 1 
    15    5    7 1 
    16    5    6 1 
