@<TRIPOS>MOLECULE
C:\Users\Praveer\PycharmProjects\pdb_to_mol2_converter\data\pdb\thps.pdb
   16    16     0     0     0
SMALL
GASTEIGER

@<TRIPOS>ATOM
      1 S1         -0.0440    0.1150    0.0500 S.3       1 THP1        0.0000
      2 C2          1.7700    0.0170   -0.0280 C.3       1 THP1        0.0000
      3 H21         2.0780   -0.5180   -0.9540 H         1 THP1        0.0000
      4 H22         2.1450   -0.5790    0.8330 H         1 THP1        0.0000
      5 C3          2.4580    1.3920   -0.0080 C.3       1 THP1        0.0000
      6 H31         3.5610    1.2490    0.0100 H         1 THP1        0.0000
      7 H32         2.1710    1.9200    0.9300 H         1 THP1        0.0000
      8 C4          2.0820    2.2720   -1.2100 C.3       1 THP1        0.0000
      9 H41         2.4500    1.7830   -2.1400 H         1 THP1        0.0000
     10 H42         2.5900    3.2580   -1.1220 H         1 THP1        0.0000
     11 C5          0.5650    2.4850   -1.3320 C.3       1 THP1        0.0000
     12 H51         0.3540    3.1010   -2.2330 H         1 THP1        0.0000
     13 H52         0.2080    3.0530   -0.4430 H         1 THP1        0.0000
     14 C6         -0.2240    1.1680   -1.4230 C.3       1 THP1        0.0000
     15 H61        -1.2990    1.4090   -1.5750 H         1 THP1        0.0000
     16 H62         0.1190    0.6140   -2.3250 H         1 THP1        0.0000
@<TRIPOS>BOND
     1   16   14 1 
     2   12   11 1 
     3    9    8 1 
     4   15   14 1 
     5   14   11 1 
     6   14    1 1 
     7   11    8 1 
     8   11   13 1 
     9    8   10 1 
    10    8    5 1 
    11    3    2 1 
    12    2    5 1 
    13    2    1 1 
    14    2    4 1 
    15    5    6 1 
    16    5    7 1 
