@<TRIPOS>MOLECULE
C:\Users\Praveer\PycharmProjects\pdb_to_mol2_converter\data\pdb\tipa.pdb
  106   105     0     0     0
SMALL
GASTEIGER

@<TRIPOS>ATOM
      1 P           1.5780    0.0580   -0.0260 P.3       1 TIP1        0.0000
      2 O13         2.1180   -0.4780    1.2350 O.3       1 TIP1        0.0000
      3 O14         2.1190   -0.4600   -1.2930 O.2       1 TIP1        0.0000
      4 O12         2.0150    1.5640   -0.0140 O.3       1 TIP1        0.0000
      5 H12         2.9750    1.5680   -0.0010 H         1 TIP1        0.0000
      6 O11        -0.0040    0.0310   -0.0310 O.3       1 TIP1        0.0000
      7 C1         -0.6310   -1.2590   -0.0490 C.3       1 TIP1        0.0000
      8 HA         -0.3140   -1.8700    0.8290 H         1 TIP1        0.0000
      9 HB         -0.3620   -1.8060   -0.9830 H         1 TIP1        0.0000
     10 C2         -2.1770   -1.1300    0.0070 C.3       1 TIP1        0.0000
     11 HS         -2.4760   -0.4950   -0.8610 H         1 TIP1        0.0000
     12 O21        -2.5310   -0.5080    1.2570 O.3       1 TIP1        0.0000
     13 C21        -3.7330    0.0240    1.3050 C.2       1 TIP1        0.0000
     14 O22        -4.5770   -0.0230    0.4270 O.2       1 TIP1        0.0000
     15 C22        -3.9090    0.7270    2.6540 C.3       1 TIP1        0.0000
     16 H2R        -3.5860    1.7800    2.5280 H         1 TIP1        0.0000
     17 H2S        -3.2420    0.2410    3.3950 H         1 TIP1        0.0000
     18 C3         -2.8660   -2.5170   -0.1300 C.3       1 TIP1        0.0000
     19 HX         -3.9700   -2.3870   -0.1640 H         1 TIP1        0.0000
     20 HY         -2.6030   -3.0840    0.7960 H         1 TIP1        0.0000
     21 O31        -2.4140   -3.1870   -1.3260 O.3       1 TIP1        0.0000
     22 C31        -2.5660   -4.5040   -1.3020 C.2       1 TIP1        0.0000
     23 O32        -3.0690   -5.1430   -0.3940 O.2       1 TIP1        0.0000
     24 C32        -2.0110   -5.1110   -2.5880 C.3       1 TIP1        0.0000
     25 H2X        -1.9600   -6.2100   -2.4420 H         1 TIP1        0.0000
     26 H2Y        -0.9820   -4.7210   -2.7340 H         1 TIP1        0.0000
     27 C23        -5.3680    0.6770    3.1580 C.3       1 TIP1        0.0000
     28 H3R        -5.6960   -0.3850    3.2130 H         1 TIP1        0.0000
     29 H3S        -6.0370    1.2000    2.4370 H         1 TIP1        0.0000
     30 C24        -5.5140    1.3210    4.5430 C.3       1 TIP1        0.0000
     31 H4R        -5.1170    2.3610    4.4850 H         1 TIP1        0.0000
     32 H4S        -4.8750    0.7650    5.2660 H         1 TIP1        0.0000
     33 C25        -6.9560    1.3860    5.0800 C.3       1 TIP1        0.0000
     34 H5R        -7.5930    1.9810    4.3890 H         1 TIP1        0.0000
     35 H5S        -6.9090    1.9490    6.0420 H         1 TIP1        0.0000
     36 C26        -7.6080    0.0180    5.3870 C.3       1 TIP1        0.0000
     37 H6R        -8.3920    0.2010    6.1590 H         1 TIP1        0.0000
     38 H6S        -6.8400   -0.6340    5.8640 H         1 TIP1        0.0000
     39 C27        -8.2480   -0.6630    4.2000 C.2       1 TIP1        0.0000
     40 H7R        -8.3150   -0.0610    3.2790 H         1 TIP1        0.0000
     41 C28        -8.7070   -1.9290    4.2060 C.2       1 TIP1        0.0000
     42 H8R        -9.1580   -2.3500    3.2910 H         1 TIP1        0.0000
     43 C29        -8.6540   -2.8270    5.4180 C.3       1 TIP1        0.0000
     44 H9R        -9.0800   -2.2830    6.2910 H         1 TIP1        0.0000
     45 H9S        -7.5860   -3.0060    5.6760 H         1 TIP1        0.0000
     46 C210       -9.3590   -4.1570    5.2850 C.2       1 TIP1        0.0000
     47 H10R       -9.9200   -4.3340    4.3530 H         1 TIP1        0.0000
     48 C211       -9.3370   -5.1140    6.2330 C.2       1 TIP1        0.0000
     49 H11R       -9.8750   -6.0610    6.0630 H         1 TIP1        0.0000
     50 C212       -8.6040   -4.9710    7.5460 C.3       1 TIP1        0.0000
     51 H12R       -8.9930   -4.0750    8.0790 H         1 TIP1        0.0000
     52 H12S       -7.5320   -4.7540    7.3410 H         1 TIP1        0.0000
     53 C213       -8.6870   -6.1590    8.4740 C.2       1 TIP1        0.0000
     54 H13R       -9.2660   -7.0290    8.1280 H         1 TIP1        0.0000
     55 C214       -8.0960   -6.2020    9.6810 C.2       1 TIP1        0.0000
     56 H14R       -8.1960   -7.1000   10.3080 H         1 TIP1        0.0000
     57 C215       -7.2780   -5.0800   10.2640 C.3       1 TIP1        0.0000
     58 H15R       -7.8900   -4.1540   10.3450 H         1 TIP1        0.0000
     59 H15S       -6.4260   -4.8300    9.5930 H         1 TIP1        0.0000
     60 C216       -6.7310   -5.4360   11.6530 C.3       1 TIP1        0.0000
     61 H16R       -6.0630   -6.3250   11.6110 H         1 TIP1        0.0000
     62 H16S       -7.5520   -5.6380   12.3740 H         1 TIP1        0.0000
     63 H16T       -6.1370   -4.5850   12.0450 H         1 TIP1        0.0000
     64 C33        -2.8820   -4.7740   -3.8180 C.3       1 TIP1        0.0000
     65 H3X        -2.3920   -5.1960   -4.7260 H         1 TIP1        0.0000
     66 H3Y        -2.9360   -3.6690   -3.9550 H         1 TIP1        0.0000
     67 C34        -4.2990   -5.3520   -3.7080 C.3       1 TIP1        0.0000
     68 H4X        -4.8110   -4.8850   -2.8380 H         1 TIP1        0.0000
     69 H4Y        -4.2400   -6.4460   -3.5060 H         1 TIP1        0.0000
     70 C35        -5.1460   -5.1270   -4.9700 C.3       1 TIP1        0.0000
     71 H5X        -4.7040   -5.7260   -5.7990 H         1 TIP1        0.0000
     72 H5Y        -5.1050   -4.0570   -5.2690 H         1 TIP1        0.0000
     73 C36        -6.6120   -5.5430   -4.7780 C.3       1 TIP1        0.0000
     74 H6X        -6.6390   -6.5300   -4.2670 H         1 TIP1        0.0000
     75 H6Y        -7.0900   -5.6710   -5.7760 H         1 TIP1        0.0000
     76 C37        -7.4330   -4.5230   -3.9690 C.3       1 TIP1        0.0000
     77 H7X        -7.5300   -3.5890   -4.5680 H         1 TIP1        0.0000
     78 H7Y        -6.8850   -4.2660   -3.0340 H         1 TIP1        0.0000
     79 C38        -8.8270   -5.0650   -3.5970 C.3       1 TIP1        0.0000
     80 H8X        -8.6810   -6.0110   -3.0250 H         1 TIP1        0.0000
     81 H8Y        -9.3550   -5.3310   -4.5400 H         1 TIP1        0.0000
     82 C39        -9.6420   -4.0750   -2.7980 C.2       1 TIP1        0.0000
     83 H9X        -9.2910   -3.0320   -2.8290 H         1 TIP1        0.0000
     84 C310      -10.7170   -4.3930   -2.0520 C.2       1 TIP1        0.0000
     85 H10X      -11.2470   -3.6020   -1.4980 H         1 TIP1        0.0000
     86 C311      -11.2710   -5.7930   -1.9410 C.3       1 TIP1        0.0000
     87 H11X      -10.5000   -6.4410   -1.4660 H         1 TIP1        0.0000
     88 H11Y      -11.4110   -6.2050   -2.9670 H         1 TIP1        0.0000
     89 C312      -12.5650   -5.9320   -1.1740 C.2       1 TIP1        0.0000
     90 H12X      -12.9850   -5.0170   -0.7290 H         1 TIP1        0.0000
     91 C313      -13.2120   -7.1030   -1.0150 C.2       1 TIP1        0.0000
     92 H13X      -14.1530   -7.1320   -0.4420 H         1 TIP1        0.0000
     93 C314      -12.7150   -8.4100   -1.5860 C.3       1 TIP1        0.0000
     94 H14X      -11.6860   -8.6020   -1.2080 H         1 TIP1        0.0000
     95 H14Y      -12.6110   -8.3040   -2.6900 H         1 TIP1        0.0000
     96 C315      -13.5700   -9.6190   -1.2970 C.2       1 TIP1        0.0000
     97 H15X      -14.4780   -9.4600   -0.6940 H         1 TIP1        0.0000
     98 C316      -13.2820  -10.8580   -1.7330 C.2       1 TIP1        0.0000
     99 H16X      -13.9530  -11.6940   -1.4840 H         1 TIP1        0.0000
    100 C317      -12.0770  -11.2100   -2.5640 C.3       1 TIP1        0.0000
    101 H17X      -11.1410  -10.9340   -2.0280 H         1 TIP1        0.0000
    102 H17Y      -12.0740  -10.6280   -3.5120 H         1 TIP1        0.0000
    103 C318      -12.0330  -12.7080   -2.9000 C.3       1 TIP1        0.0000
    104 H18X      -12.9240  -13.0180   -3.4880 H         1 TIP1        0.0000
    105 H18Y      -11.9760  -13.3300   -1.9800 H         1 TIP1        0.0000
    106 H18Z      -11.1320  -12.9230   -3.5110 H         1 TIP1        0.0000
@<TRIPOS>BOND
     1   71   70 1 
     2   75   73 1 
     3   72   70 1 
     4   70   73 1 
     5   70   67 1 
     6   73   74 1 
     7   73   76 1 
     8   65   64 1 
     9   77   76 1 
    10   81   79 1 
    11   76   79 1 
    12   76   78 1 
    13   66   64 1 
    14   64   67 1 
    15   64   24 1 
    16   67   69 1 
    17   67   68 1 
    18   79   80 1 
    19   79   82 1 
    20  102  100 1 
    21  106  103 1 
    22  104  103 1 
    23   88   86 1 
    24  103  100 1 
    25  103  105 1 
    26   83   82 1 
    27   82   84 2 
    28   26   24 1 
    29   95   93 1 
    30   24   25 1 
    31   24   22 1 
    32  100  101 1 
    33  100   98 1 
    34   84   86 1 
    35   84   85 1 
    36   86   87 1 
    37   86   89 1 
    38   98   99 1 
    39   98   96 2 
    40   93   96 1 
    41   93   94 1 
    42   93   91 1 
    43   21   22 1 
    44   21   18 1 
    45   22   23 2 
    46   96   97 1 
    47    3    1 2 
    48   89   91 2 
    49   89   90 1 
    50   91   92 1 
    51    9    7 1 
    52   11   10 1 
    53   19   18 1 
    54   18   10 1 
    55   18   20 1 
    56    7    6 1 
    57    7   10 1 
    58    7    8 1 
    59    6    1 1 
    60    1    4 1 
    61    1    2 1 
    62    4    5 1 
    63   10   12 1 
    64   14   13 2 
    65   12   13 1 
    66   13   15 1 
    67   29   27 1 
    68   16   15 1 
    69   15   27 1 
    70   15   17 1 
    71   27   28 1 
    72   27   30 1 
    73   40   39 1 
    74   42   41 1 
    75   39   41 2 
    76   39   36 1 
    77   41   43 1 
    78   47   46 1 
    79   34   33 1 
    80   31   30 1 
    81   30   33 1 
    82   30   32 1 
    83   33   36 1 
    84   33   35 1 
    85   46   43 1 
    86   46   48 2 
    87   36   38 1 
    88   36   37 1 
    89   43   45 1 
    90   43   44 1 
    91   49   48 1 
    92   48   50 1 
    93   52   50 1 
    94   50   51 1 
    95   50   53 1 
    96   54   53 1 
    97   53   55 2 
    98   59   57 1 
    99   55   57 1 
   100   55   56 1 
   101   57   58 1 
   102   57   60 1 
   103   61   60 1 
   104   60   63 1 
   105   60   62 1 
