@<TRIPOS>MOLECULE
C:\Users\Praveer\PycharmProjects\pdb_to_mol2_converter\data\pdb\tlcl1.pdb
  241   240     0     0     0
SMALL
GASTEIGER

@<TRIPOS>ATOM
      1 C3          1.5550    0.0080    0.0120 C.3       1 TLC1        0.0000
      2 HG31        1.9030   -0.6000    0.8820 H         1 TLC1        0.0000
      3 HG32        1.9180   -0.5020   -0.9090 H         1 TLC1        0.0000
      4 P3          2.9840    1.9010    1.1780 P.3       1 TLC1        0.0000
      5 OP33        2.1150    2.2160    2.3330 O.3       1 TLC1        0.0000
      6 OP34        3.8560    2.9670    0.6500 O.2       1 TLC1        0.0000
      7 OP31        2.0710    1.3380    0.0140 O.3       1 TLC1        0.0000
      8 OP32        3.8700    0.6460    1.5570 O.3       1 TLC1        0.0000
      9 C31         4.8640    0.1830    0.6420 C.3       1 TLC1        0.0000
     10 H31J        5.5920    0.9930    0.3990 H         1 TLC1        0.0000
     11 H31K        4.3970   -0.1510   -0.3120 H         1 TLC1        0.0000
     12 C2          0.0070   -0.0050    0.0190 C.3       1 TLC1        0.0000
     13 HG22       -0.3640    0.5720   -0.8580 H         1 TLC1        0.0000
     14 OG12       -0.4120   -1.3650   -0.1160 O.3       1 TLC1        0.0000
     15 HO12        0.0010   -1.6810   -0.9250 H         1 TLC1        0.0000
     16 C1         -0.6120    0.6310    1.3000 C.3       1 TLC1        0.0000
     17 HG11        0.1530    0.5010    2.1060 H         1 TLC1        0.0000
     18 HG12       -1.5160    0.0440    1.5820 H         1 TLC1        0.0000
     19 P1         -1.1590    2.9000    2.3420 P.3       1 TLC1        0.0000
     20 OP13        0.0720    3.8570    2.4870 O.3       1 TLC1        0.0000
     21 HP13        0.9000    3.3380    2.4030 H         1 TLC1        0.0000
     22 OP14       -2.3960    3.6970    2.3600 O.2       1 TLC1        0.0000
     23 OP11       -0.9930    1.9940    1.0680 O.3       1 TLC1        0.0000
     24 OP12       -1.1180    1.9070    3.5550 O.3       1 TLC1        0.0000
     25 C11        -0.9500    2.4470    4.8660 C.3       1 TLC1        0.0000
     26 H11J       -1.6070    1.8610    5.5460 H         1 TLC1        0.0000
     27 H11K       -1.2580    3.5150    4.9700 H         1 TLC1        0.0000
     28 C12         0.5130    2.2730    5.3840 C.3       1 TLC1        0.0000
     29 H12J        1.1440    2.9960    4.8120 H         1 TLC1        0.0000
     30 O12         0.9550    0.9290    5.1040 O.3       1 TLC1        0.0000
     31 CA1         2.2780    0.7720    5.1610 C.2       1 TLC1        0.0000
     32 OA1         3.0700    1.6090    5.5550 O.2       1 TLC1        0.0000
     33 CA2         2.6330   -0.6170    4.6310 C.3       1 TLC1        0.0000
     34 H2A         2.8450   -0.4970    3.5470 H         1 TLC1        0.0000
     35 H2B         1.7570   -1.2840    4.7480 H         1 TLC1        0.0000
     36 C13         0.6100    2.6290    6.9000 C.3       1 TLC1        0.0000
     37 H13J        0.4650    3.7300    6.9790 H         1 TLC1        0.0000
     38 H13K        1.6250    2.4230    7.3050 H         1 TLC1        0.0000
     39 O13        -0.4310    1.9870    7.6650 O.3       1 TLC1        0.0000
     40 CB1        -0.1540    0.7700    8.1250 C.2       1 TLC1        0.0000
     41 OB1         0.9110    0.1920    8.0300 O.2       1 TLC1        0.0000
     42 CB2        -1.3980    0.2180    8.8190 C.3       1 TLC1        0.0000
     43 H2D        -2.3000    0.6180    8.3120 H         1 TLC1        0.0000
     44 H2E        -1.3830    0.5890    9.8640 H         1 TLC1        0.0000
     45 C32         5.6490   -1.0000    1.2710 C.3       1 TLC1        0.0000
     46 H32J        6.3320   -1.4330    0.5050 H         1 TLC1        0.0000
     47 O32         4.7570   -2.0080    1.7820 O.3       1 TLC1        0.0000
     48 CC1         4.0880   -2.6810    0.8720 C.2       1 TLC1        0.0000
     49 OC1         4.2550   -2.6380   -0.3340 O.2       1 TLC1        0.0000
     50 CC2         3.0560   -3.5650    1.5740 C.3       1 TLC1        0.0000
     51 H2R         2.4890   -4.1130    0.7950 H         1 TLC1        0.0000
     52 H2S         2.3610   -2.8820    2.1050 H         1 TLC1        0.0000
     53 C33         6.5300   -0.4990    2.4460 C.3       1 TLC1        0.0000
     54 H33J        5.8320   -0.0130    3.1720 H         1 TLC1        0.0000
     55 H33K        7.2380    0.2720    2.0710 H         1 TLC1        0.0000
     56 O33         7.2480   -1.6050    3.0340 O.3       1 TLC1        0.0000
     57 CD1         7.6330   -1.4030    4.2860 C.2       1 TLC1        0.0000
     58 OD1         7.6230   -0.3390    4.8730 O.2       1 TLC1        0.0000
     59 CD2         8.0440   -2.7360    4.9090 C.3       1 TLC1        0.0000
     60 H2X         8.1690   -2.5550    5.9970 H         1 TLC1        0.0000
     61 H2Y         9.0180   -3.0440    4.4810 H         1 TLC1        0.0000
     62 CA3         3.8700   -1.2280    5.3260 C.3       1 TLC1        0.0000
     63 H3A         4.7250   -0.5160    5.2880 H         1 TLC1        0.0000
     64 H3B         4.1690   -2.1330    4.7520 H         1 TLC1        0.0000
     65 CA4         3.5960   -1.6360    6.7810 C.3       1 TLC1        0.0000
     66 H4A         2.6750   -2.2560    6.8320 H         1 TLC1        0.0000
     67 H4B         3.4120   -0.7130    7.3780 H         1 TLC1        0.0000
     68 CA5         4.7600   -2.4140    7.4120 C.3       1 TLC1        0.0000
     69 H5A         5.7040   -1.8710    7.1820 H         1 TLC1        0.0000
     70 H5B         4.8250   -3.4240    6.9500 H         1 TLC1        0.0000
     71 CA6         4.6170   -2.5540    8.9350 C.3       1 TLC1        0.0000
     72 H6A         3.6400   -3.0350    9.1620 H         1 TLC1        0.0000
     73 H6B         4.5910   -1.5340    9.3820 H         1 TLC1        0.0000
     74 CA7         5.7340   -3.3740    9.6070 C.3       1 TLC1        0.0000
     75 H7A         5.6350   -4.4360    9.2840 H         1 TLC1        0.0000
     76 H7B         5.5770   -3.3460   10.7090 H         1 TLC1        0.0000
     77 CA8         7.1750   -2.9120    9.3000 C.3       1 TLC1        0.0000
     78 H8A         7.3800   -3.0810    8.2210 H         1 TLC1        0.0000
     79 H8B         7.8660   -3.5840    9.8540 H         1 TLC1        0.0000
     80 CA9         7.4120   -1.4580    9.6340 C.2       1 TLC1        0.0000
     81 H9A         6.9120   -0.7540    8.9500 H         1 TLC1        0.0000
     82 CA10        8.1360   -0.9530   10.6520 C.2       1 TLC1        0.0000
     83 H10A        8.2040    0.1420   10.7440 H         1 TLC1        0.0000
     84 CA11        8.8930   -1.7180   11.7120 C.3       1 TLC1        0.0000
     85 H11A        9.9430   -1.3520   11.7320 H         1 TLC1        0.0000
     86 H11B        8.9610   -2.7970   11.4560 H         1 TLC1        0.0000
     87 CA12        8.2770   -1.5240   13.0780 C.2       1 TLC1        0.0000
     88 H12A        7.9370   -0.5000   13.3030 H         1 TLC1        0.0000
     89 CA13        8.0950   -2.4780   14.0110 C.2       1 TLC1        0.0000
     90 H13A        7.6210   -2.2030   14.9650 H         1 TLC1        0.0000
     91 CA14        8.4920   -3.9270   13.8920 C.3       1 TLC1        0.0000
     92 H14A        8.7780   -4.3270   14.8900 H         1 TLC1        0.0000
     93 H14B        9.3910   -4.0320   13.2460 H         1 TLC1        0.0000
     94 CA15        7.3790   -4.8180   13.3030 C.3       1 TLC1        0.0000
     95 H15A        7.7830   -5.8490   13.1940 H         1 TLC1        0.0000
     96 H15B        7.1140   -4.4540   12.2850 H         1 TLC1        0.0000
     97 CA16        6.1160   -4.8840   14.1770 C.3       1 TLC1        0.0000
     98 H16A        5.6340   -3.8820   14.1960 H         1 TLC1        0.0000
     99 H16B        6.4180   -5.1330   15.2190 H         1 TLC1        0.0000
    100 CA17        5.0840   -5.9230   13.7050 C.3       1 TLC1        0.0000
    101 H17A        4.2450   -5.9340   14.4380 H         1 TLC1        0.0000
    102 H17B        5.5570   -6.9300   13.7250 H         1 TLC1        0.0000
    103 CA18        4.5110   -5.6620   12.3080 C.3       1 TLC1        0.0000
    104 H18A        5.3080   -5.7200   11.5360 H         1 TLC1        0.0000
    105 H18B        4.0550   -4.6510   12.2610 H         1 TLC1        0.0000
    106 H18C        3.7290   -6.4100   12.0610 H         1 TLC1        0.0000
    107 CB3        -1.4300   -1.3250    8.7970 C.3       1 TLC1        0.0000
    108 H3D        -0.5070   -1.7280    9.2730 H         1 TLC1        0.0000
    109 H3E        -1.4300   -1.6760    7.7390 H         1 TLC1        0.0000
    110 CB4        -2.6600   -1.9200    9.5040 C.3       1 TLC1        0.0000
    111 H4D        -2.6210   -3.0280    9.4050 H         1 TLC1        0.0000
    112 H4E        -3.5800   -1.5780    8.9780 H         1 TLC1        0.0000
    113 CB5        -2.7870   -1.5670   10.9990 C.3       1 TLC1        0.0000
    114 H5D        -3.6390   -2.1430   11.4250 H         1 TLC1        0.0000
    115 H5E        -3.0410   -0.4870   11.0950 H         1 TLC1        0.0000
    116 CB6        -1.5310   -1.8500   11.8420 C.3       1 TLC1        0.0000
    117 H6D        -1.7440   -1.5880   12.9030 H         1 TLC1        0.0000
    118 H6E        -0.7110   -1.1810   11.5010 H         1 TLC1        0.0000
    119 CB7        -1.0590   -3.3130   11.7840 C.3       1 TLC1        0.0000
    120 H7D        -0.8610   -3.6050   10.7300 H         1 TLC1        0.0000
    121 H7E        -1.8840   -3.9620   12.1560 H         1 TLC1        0.0000
    122 CB8         0.2040   -3.5910   12.6250 C.3       1 TLC1        0.0000
    123 H8D         0.4160   -4.6820   12.5700 H         1 TLC1        0.0000
    124 H8E        -0.0340   -3.3540   13.6860 H         1 TLC1        0.0000
    125 CB9         1.4030   -2.8180   12.1330 C.2       1 TLC1        0.0000
    126 H9D         1.4050   -2.6070   11.0520 H         1 TLC1        0.0000
    127 CB10        2.4100   -2.3390   12.8880 C.2       1 TLC1        0.0000
    128 H10D        3.2260   -1.7870   12.3920 H         1 TLC1        0.0000
    129 CB11        2.5830   -2.5220   14.3760 C.3       1 TLC1        0.0000
    130 H11D        3.5400   -3.0580   14.5570 H         1 TLC1        0.0000
    131 H11E        1.8020   -3.1890   14.8030 H         1 TLC1        0.0000
    132 CB12        2.5500   -1.2030   15.1100 C.2       1 TLC1        0.0000
    133 H12D        1.5570   -0.7280   15.1600 H         1 TLC1        0.0000
    134 CB13        3.5920   -0.5930   15.7070 C.2       1 TLC1        0.0000
    135 H13D        3.4250    0.3630   16.2260 H         1 TLC1        0.0000
    136 CB14        5.0150   -1.0960   15.7340 C.3       1 TLC1        0.0000
    137 H14D        5.7220   -0.2380   15.7740 H         1 TLC1        0.0000
    138 H14E        5.2490   -1.6500   14.7970 H         1 TLC1        0.0000
    139 CB15        5.3000   -2.0300   16.9270 C.3       1 TLC1        0.0000
    140 H15D        6.3270   -2.4430   16.8150 H         1 TLC1        0.0000
    141 H15E        4.5950   -2.8920   16.9060 H         1 TLC1        0.0000
    142 CB16        5.2120   -1.3330   18.2940 C.3       1 TLC1        0.0000
    143 H16D        4.1780   -0.9540   18.4530 H         1 TLC1        0.0000
    144 H16E        5.8990   -0.4570   18.3000 H         1 TLC1        0.0000
    145 CB17        5.5820   -2.2660   19.4550 C.3       1 TLC1        0.0000
    146 H17D        6.6160   -2.6480   19.2930 H         1 TLC1        0.0000
    147 H17E        4.8960   -3.1430   19.4400 H         1 TLC1        0.0000
    148 CB18        5.5040   -1.5890   20.8260 C.3       1 TLC1        0.0000
    149 H18D        4.4730   -1.2220   21.0190 H         1 TLC1        0.0000
    150 H18E        6.1980   -0.7220   20.8720 H         1 TLC1        0.0000
    151 H18F        5.7790   -2.3040   21.6310 H         1 TLC1        0.0000
    152 CC3         3.7110   -4.5570    2.5650 C.3       1 TLC1        0.0000
    153 H3R         4.3730   -3.9930    3.2620 H         1 TLC1        0.0000
    154 H3S         4.3500   -5.2790    2.0080 H         1 TLC1        0.0000
    155 CC4         2.7000   -5.3330    3.4240 C.3       1 TLC1        0.0000
    156 H4R         3.2720   -5.9690    4.1370 H         1 TLC1        0.0000
    157 H4S         2.0920   -6.0110    2.7860 H         1 TLC1        0.0000
    158 CC5         1.7680   -4.4140    4.2250 C.3       1 TLC1        0.0000
    159 H5R         0.9330   -4.0690    3.5760 H         1 TLC1        0.0000
    160 H5S         2.3420   -3.5140    4.5410 H         1 TLC1        0.0000
    161 CC6         1.2130   -5.0690    5.4940 C.3       1 TLC1        0.0000
    162 H6R         2.0680   -5.2790    6.1750 H         1 TLC1        0.0000
    163 H6S         0.7340   -6.0410    5.2420 H         1 TLC1        0.0000
    164 CC7         0.1910   -4.1740    6.2130 C.3       1 TLC1        0.0000
    165 H7R        -0.7360   -4.1440    5.5960 H         1 TLC1        0.0000
    166 H7S         0.5790   -3.1310    6.2640 H         1 TLC1        0.0000
    167 CC8        -0.1650   -4.6650    7.6290 C.3       1 TLC1        0.0000
    168 H8R        -0.4800   -5.7290    7.5590 H         1 TLC1        0.0000
    169 H8S        -1.0490   -4.0900    7.9810 H         1 TLC1        0.0000
    170 CC9         0.9800   -4.4560    8.5910 C.2       1 TLC1        0.0000
    171 H9R         1.4530   -3.4630    8.5140 H         1 TLC1        0.0000
    172 CC10        1.4790   -5.3350    9.4810 C.2       1 TLC1        0.0000
    173 H10R        2.3280   -5.0150   10.1080 H         1 TLC1        0.0000
    174 CC11        0.9900   -6.7390    9.7580 C.3       1 TLC1        0.0000
    175 H11R        0.2070   -7.0490    9.0330 H         1 TLC1        0.0000
    176 H11S        0.4870   -6.7540   10.7490 H         1 TLC1        0.0000
    177 CC12        2.1060   -7.7560    9.7630 C.2       1 TLC1        0.0000
    178 H12R        2.4850   -8.0230   10.7610 H         1 TLC1        0.0000
    179 CC13        2.6590   -8.3430    8.6830 C.2       1 TLC1        0.0000
    180 H13R        3.4720   -9.0680    8.8340 H         1 TLC1        0.0000
    181 CC14        2.2780   -8.1080    7.2410 C.3       1 TLC1        0.0000
    182 H14R        3.1200   -7.6260    6.6970 H         1 TLC1        0.0000
    183 H14S        1.4140   -7.4100    7.1650 H         1 TLC1        0.0000
    184 CC15        1.8930   -9.4020    6.4950 C.3       1 TLC1        0.0000
    185 H15R        1.4690   -9.1100    5.5080 H         1 TLC1        0.0000
    186 H15S        1.0920   -9.9350    7.0540 H         1 TLC1        0.0000
    187 CC16        3.0760  -10.3550    6.2550 C.3       1 TLC1        0.0000
    188 H16R        3.5330  -10.6260    7.2330 H         1 TLC1        0.0000
    189 H16S        3.8500   -9.8260    5.6560 H         1 TLC1        0.0000
    190 CC17        2.6880  -11.6560    5.5320 C.3       1 TLC1        0.0000
    191 H17R        1.9230  -12.1880    6.1420 H         1 TLC1        0.0000
    192 H17S        3.5890  -12.3110    5.4880 H         1 TLC1        0.0000
    193 CC18        2.1540  -11.4620    4.1090 C.3       1 TLC1        0.0000
    194 H18R        2.8930  -10.9130    3.4880 H         1 TLC1        0.0000
    195 H18S        1.2040  -10.8860    4.1180 H         1 TLC1        0.0000
    196 H18T        1.9560  -12.4460    3.6330 H         1 TLC1        0.0000
    197 CD3         6.9720   -3.8250    4.6780 C.3       1 TLC1        0.0000
    198 H3X         6.9450   -4.1120    3.6020 H         1 TLC1        0.0000
    199 H3Y         5.9700   -3.4120    4.9350 H         1 TLC1        0.0000
    200 CD4         7.1880   -5.0730    5.5380 C.3       1 TLC1        0.0000
    201 H4X         7.2450   -4.7640    6.6050 H         1 TLC1        0.0000
    202 H4Y         8.1570   -5.5490    5.2690 H         1 TLC1        0.0000
    203 CD5         6.0510   -6.0920    5.3650 C.3       1 TLC1        0.0000
    204 H5X         5.9780   -6.3570    4.2860 H         1 TLC1        0.0000
    205 H5Y         5.0870   -5.6200    5.6610 H         1 TLC1        0.0000
    206 CD6         6.2500   -7.3800    6.1770 C.3       1 TLC1        0.0000
    207 H6X         7.2410   -7.8190    5.9250 H         1 TLC1        0.0000
    208 H6Y         5.4700   -8.1150    5.8800 H         1 TLC1        0.0000
    209 CD7         6.1620   -7.1650    7.6950 C.3       1 TLC1        0.0000
    210 H7X         5.1600   -6.7460    7.9430 H         1 TLC1        0.0000
    211 H7Y         6.9250   -6.4150    8.0030 H         1 TLC1        0.0000
    212 CD8         6.3970   -8.4670    8.4820 C.3       1 TLC1        0.0000
    213 H8X         7.3870   -8.8800    8.1820 H         1 TLC1        0.0000
    214 H8Y         5.6400   -9.2200    8.1720 H         1 TLC1        0.0000
    215 CD9         6.3360   -8.2390    9.9720 C.2       1 TLC1        0.0000
    216 H9X         5.3600   -8.4380   10.4400 H         1 TLC1        0.0000
    217 CD10        7.3540   -7.8120   10.7430 C.2       1 TLC1        0.0000
    218 H10X        7.1790   -7.6760   11.8220 H         1 TLC1        0.0000
    219 CD11        8.7460   -7.4590   10.2750 C.3       1 TLC1        0.0000
    220 H11X        8.9210   -6.3790   10.4700 H         1 TLC1        0.0000
    221 H11Y        8.8460   -7.5650    9.1720 H         1 TLC1        0.0000
    222 CD12        9.7920   -8.3230   10.9390 C.2       1 TLC1        0.0000
    223 H12X        9.7660   -9.3830   10.6410 H         1 TLC1        0.0000
    224 CD13       10.7350   -7.9210   11.8130 C.2       1 TLC1        0.0000
    225 H13X       11.4460   -8.6640   12.2070 H         1 TLC1        0.0000
    226 CD14       10.9270   -6.5190   12.3390 C.3       1 TLC1        0.0000
    227 H14X       11.1360   -6.5520   13.4300 H         1 TLC1        0.0000
    228 H14Y       10.0030   -5.9140   12.2160 H         1 TLC1        0.0000
    229 CD15       12.0720   -5.7760   11.6240 C.3       1 TLC1        0.0000
    230 H15X       11.9240   -5.8540   10.5220 H         1 TLC1        0.0000
    231 H15Y       13.0440   -6.2590   11.8690 H         1 TLC1        0.0000
    232 CD16       12.1430   -4.2800   11.9780 C.3       1 TLC1        0.0000
    233 H16X       11.1820   -3.7970   11.6940 H         1 TLC1        0.0000
    234 H16Y       12.9460   -3.8070   11.3690 H         1 TLC1        0.0000
    235 CD17       12.4260   -4.0000   13.4600 C.3       1 TLC1        0.0000
    236 H17X       13.3910   -4.4820   13.7380 H         1 TLC1        0.0000
    237 H17Y       11.6290   -4.4640   14.0840 H         1 TLC1        0.0000
    238 CD18       12.4930   -2.5050   13.7870 C.3       1 TLC1        0.0000
    239 H18X       11.5230   -2.0150   13.5520 H         1 TLC1        0.0000
    240 H18Y       13.2900   -2.0120   13.1910 H         1 TLC1        0.0000
    241 H18Z       12.7110   -2.3500   14.8650 H         1 TLC1        0.0000
@<TRIPOS>BOND
     1   15   14 1 
     2    3    1 1 
     3   13   12 1 
     4   49   48 2 
     5   11    9 1 
     6   14   12 1 
     7    1    7 1 
     8    1   12 1 
     9    1    2 1 
    10    7    4 1 
    11   12   16 1 
    12   10    9 1 
    13   46   45 1 
    14    9   45 1 
    15    9    8 1 
    16    6    4 2 
    17   51   50 1 
    18   48   50 1 
    19   48   47 1 
    20   23   16 1 
    21   23   19 1 
    22    4    8 1 
    23    4    5 1 
    24   45   47 1 
    25   45   53 1 
    26   16   18 1 
    27   16   17 1 
    28   50   52 1 
    29   50  152 1 
    30  154  152 1 
    31   55   53 1 
    32   19   22 2 
    33   19   20 1 
    34   19   24 1 
    35   21   20 1 
    36   53   56 1 
    37   53   54 1 
    38  152  153 1 
    39  152  155 1 
    40  157  155 1 
    41   56   57 1 
    42  155  156 1 
    43  155  158 1 
    44  194  193 1 
    45   34   33 1 
    46   24   25 1 
    47  159  158 1 
    48  198  197 1 
    49  196  193 1 
    50  193  195 1 
    51  193  190 1 
    52  158  160 1 
    53  158  161 1 
    54   57   58 2 
    55   57   59 1 
    56  204  203 1 
    57   61   59 1 
    58   33   35 1 
    59   33   31 1 
    60   33   62 1 
    61  197   59 1 
    62  197  199 1 
    63  197  200 1 
    64   64   62 1 
    65   29   28 1 
    66   25   27 1 
    67   25   28 1 
    68   25   26 1 
    69   59   60 1 
    70   30   31 1 
    71   30   28 1 
    72   31   32 2 
    73  163  161 1 
    74  202  200 1 
    75   63   62 1 
    76   62   65 1 
    77  203  200 1 
    78  203  205 1 
    79  203  206 1 
    80   28   36 1 
    81  192  190 1 
    82  161  162 1 
    83  161  164 1 
    84  185  184 1 
    85  190  191 1 
    86  190  187 1 
    87  200  201 1 
    88  165  164 1 
    89  189  187 1 
    90  208  206 1 
    91  207  206 1 
    92  206  209 1 
    93  164  166 1 
    94  164  167 1 
    95  187  184 1 
    96  187  188 1 
    97  184  186 1 
    98  184  181 1 
    99  182  181 1 
   100   65   66 1 
   101   65   67 1 
   102   65   68 1 
   103   36   37 1 
   104   36   38 1 
   105   36   39 1 
   106   70   68 1 
   107  183  181 1 
   108   69   68 1 
   109  181  179 1 
   110   68   71 1 
   111  168  167 1 
   112  167  169 1 
   113  167  170 1 
   114   39   40 1 
   115  209  210 1 
   116  209  211 1 
   117  209  212 1 
   118  109  107 1 
   119   41   40 2 
   120   40   42 1 
   121  214  212 1 
   122  213  212 1 
   123   78   77 1 
   124   43   42 1 
   125  212  215 1 
   126  171  170 1 
   127  170  172 2 
   128  179  180 1 
   129  179  177 2 
   130  107   42 1 
   131  107  108 1 
   132  107  110 1 
   133   42   44 1 
   134   71   72 1 
   135   71   73 1 
   136   71   74 1 
   137   81   80 1 
   138  112  110 1 
   139  175  174 1 
   140  221  219 1 
   141   75   74 1 
   142   77   74 1 
   143   77   80 1 
   144   77   79 1 
   145  111  110 1 
   146  172  174 1 
   147  172  173 1 
   148  110  113 1 
   149   74   76 1 
   150   80   82 2 
   151  174  177 1 
   152  174  176 1 
   153  177  178 1 
   154  215  216 1 
   155  215  217 2 
   156  219  220 1 
   157  219  217 1 
   158  219  222 1 
   159  230  229 1 
   160  223  222 1 
   161   82   83 1 
   162   82   84 1 
   163  120  119 1 
   164  217  218 1 
   165  222  224 2 
   166  113  115 1 
   167  113  114 1 
   168  113  116 1 
   169  126  125 1 
   170  234  232 1 
   171   86   84 1 
   172  118  116 1 
   173  104  103 1 
   174  229  231 1 
   175  229  232 1 
   176  229  226 1 
   177  233  232 1 
   178   84   85 1 
   179   84   87 1 
   180  119  116 1 
   181  119  121 1 
   182  119  122 1 
   183  224  225 1 
   184  224  226 1 
   185  116  117 1 
   186  232  235 1 
   187  106  103 1 
   188  125  122 1 
   189  125  127 2 
   190  228  226 1 
   191  105  103 1 
   192   96   94 1 
   193  103  100 1 
   194  226  227 1 
   195  128  127 1 
   196  123  122 1 
   197  122  124 1 
   198  127  129 1 
   199   87   88 1 
   200   87   89 2 
   201  240  238 1 
   202   95   94 1 
   203   93   91 1 
   204   94   91 1 
   205   94   97 1 
   206  235  236 1 
   207  235  238 1 
   208  235  237 1 
   209  239  238 1 
   210  100  102 1 
   211  100   97 1 
   212  100  101 1 
   213  238  241 1 
   214   91   89 1 
   215   91   92 1 
   216   89   90 1 
   217   97   98 1 
   218   97   99 1 
   219  129  130 1 
   220  129  131 1 
   221  129  132 1 
   222  138  136 1 
   223  132  133 1 
   224  132  134 2 
   225  134  136 1 
   226  134  135 1 
   227  136  137 1 
   228  136  139 1 
   229  140  139 1 
   230  141  139 1 
   231  139  142 1 
   232  142  144 1 
   233  142  143 1 
   234  142  145 1 
   235  146  145 1 
   236  147  145 1 
   237  145  148 1 
   238  148  150 1 
   239  148  149 1 
   240  148  151 1 
