@<TRIPOS>MOLECULE
C:\Users\Praveer\PycharmProjects\pdb_to_mol2_converter\data\pdb\tlcl2.pdb
  240   239     0     0     0
SMALL
GASTEIGER

@<TRIPOS>ATOM
      1 C3          1.5420   -0.0160   -0.0020 C.3       1 TLC1        0.0000
      2 HG31        1.8880   -0.5490    0.9140 H         1 TLC1        0.0000
      3 HG32        1.8830   -0.5950   -0.8950 H         1 TLC1        0.0000
      4 P3          3.6030    1.5330   -0.3050 P.3       1 TLC1        0.0000
      5 OP33        4.3710    0.4080    0.2710 O.3       1 TLC1        0.0000
      6 OP34        3.9900    2.9080    0.0750 O.2       1 TLC1        0.0000
      7 OP31        2.0510    1.3270   -0.0190 O.3       1 TLC1        0.0000
      8 OP32        3.6390    1.4230   -1.8890 O.3       1 TLC1        0.0000
      9 C31         3.0510    2.4860   -2.6480 C.3       1 TLC1        0.0000
     10 H31J        3.6800    3.4020   -2.5650 H         1 TLC1        0.0000
     11 H31K        2.0310    2.7420   -2.2760 H         1 TLC1        0.0000
     12 C2         -0.0070   -0.0300   -0.0100 C.3       1 TLC1        0.0000
     13 HG22       -0.3750    0.4690    0.9160 H         1 TLC1        0.0000
     14 OG12       -0.4120    0.7280   -1.1420 O.3       1 TLC1        0.0000
     15 HO12        0.2380    1.4430   -1.1200 H         1 TLC1        0.0000
     16 C1         -0.5800   -1.4750   -0.0600 C.3       1 TLC1        0.0000
     17 HG11       -0.0410   -2.0870    0.7000 H         1 TLC1        0.0000
     18 HG12       -0.3200   -1.8990   -1.0550 H         1 TLC1        0.0000
     19 P1         -2.6540   -1.7750    1.5430 P.3       1 TLC1        0.0000
     20 OP13       -2.2120   -0.7160    2.4750 O.3       1 TLC1        0.0000
     21 OP14       -4.1110   -1.9810    1.3860 O.2       1 TLC1        0.0000
     22 OP11       -2.0020   -1.5310    0.1160 O.3       1 TLC1        0.0000
     23 OP12       -1.9800   -3.1430    1.9940 O.3       1 TLC1        0.0000
     24 C11        -2.5500   -4.4180    1.6940 C.3       1 TLC1        0.0000
     25 H11J       -3.6610   -4.4170    1.7830 H         1 TLC1        0.0000
     26 H11K       -2.1590   -5.1410    2.4420 H         1 TLC1        0.0000
     27 C12        -2.1360   -4.9170    0.2850 C.3       1 TLC1        0.0000
     28 H12J       -1.0500   -4.6770    0.1840 H         1 TLC1        0.0000
     29 O12        -2.9530   -4.2340   -0.6760 O.3       1 TLC1        0.0000
     30 CA1        -2.3450   -3.8550   -1.7810 C.2       1 TLC1        0.0000
     31 OA1        -1.2230   -4.1830   -2.1330 O.2       1 TLC1        0.0000
     32 CA2        -3.2800   -2.9420   -2.5770 C.3       1 TLC1        0.0000
     33 H2A        -2.8380   -1.9240   -2.5540 H         1 TLC1        0.0000
     34 H2B        -4.2620   -2.8980   -2.0610 H         1 TLC1        0.0000
     35 C13        -2.3290   -6.4510    0.1150 C.3       1 TLC1        0.0000
     36 H13J       -3.4170   -6.6370   -0.0220 H         1 TLC1        0.0000
     37 H13K       -2.0330   -6.9740    1.0530 H         1 TLC1        0.0000
     38 O13        -1.6120   -6.9390   -1.0430 O.3       1 TLC1        0.0000
     39 CB1        -0.3200   -7.1720   -0.8090 C.2       1 TLC1        0.0000
     40 OB1         0.1820   -7.2920    0.2940 O.2       1 TLC1        0.0000
     41 CB2         0.4470   -7.2190   -2.1310 C.3       1 TLC1        0.0000
     42 H2D         0.2190   -6.2680   -2.6610 H         1 TLC1        0.0000
     43 H2E         0.0740   -8.0630   -2.7410 H         1 TLC1        0.0000
     44 C32         2.9560    2.0970   -4.1480 C.3       1 TLC1        0.0000
     45 H32J        2.5780    2.9760   -4.7210 H         1 TLC1        0.0000
     46 O32         2.0900    0.9600   -4.3290 O.3       1 TLC1        0.0000
     47 CC1         0.8010    1.2420   -4.2190 C.2       1 TLC1        0.0000
     48 OC1         0.3290    2.3590   -4.0870 O.2       1 TLC1        0.0000
     49 CC2         0.0170   -0.0620   -4.3770 C.3       1 TLC1        0.0000
     50 H2R         0.2190   -0.6710   -3.4690 H         1 TLC1        0.0000
     51 H2S         0.4190   -0.6060   -5.2530 H         1 TLC1        0.0000
     52 C33         4.3570    1.7610   -4.7250 C.3       1 TLC1        0.0000
     53 H33J        4.7800    0.9350   -4.1080 H         1 TLC1        0.0000
     54 H33K        5.0070    2.6570   -4.6060 H         1 TLC1        0.0000
     55 O33         4.2500    1.3650   -6.1110 O.3       1 TLC1        0.0000
     56 CD1         5.4120    1.0780   -6.6780 C.2       1 TLC1        0.0000
     57 OD1         6.5100    1.2610   -6.1850 O.2       1 TLC1        0.0000
     58 CD2         5.1440    0.4600   -8.0510 C.3       1 TLC1        0.0000
     59 H2X         4.3280    1.0350   -8.5350 H         1 TLC1        0.0000
     60 H2Y         4.7870   -0.5760   -7.8740 H         1 TLC1        0.0000
     61 CA3        -3.4600   -3.4310   -4.0290 C.3       1 TLC1        0.0000
     62 H3A        -3.7760   -4.4980   -4.0230 H         1 TLC1        0.0000
     63 H3B        -2.4840   -3.3670   -4.5590 H         1 TLC1        0.0000
     64 CA4        -4.4980   -2.6090   -4.8040 C.3       1 TLC1        0.0000
     65 H4A        -4.1900   -1.5380   -4.7740 H         1 TLC1        0.0000
     66 H4B        -5.4870   -2.6850   -4.2990 H         1 TLC1        0.0000
     67 CA5        -4.6320   -3.0420   -6.2720 C.3       1 TLC1        0.0000
     68 H5A        -3.6220   -3.0470   -6.7330 H         1 TLC1        0.0000
     69 H5B        -5.2490   -2.2880   -6.8110 H         1 TLC1        0.0000
     70 CA6        -5.2840   -4.4210   -6.4570 C.3       1 TLC1        0.0000
     71 H6A        -6.2840   -4.3990   -5.9680 H         1 TLC1        0.0000
     72 H6B        -4.6770   -5.2020   -5.9500 H         1 TLC1        0.0000
     73 CA7        -5.4640   -4.8050   -7.9350 C.3       1 TLC1        0.0000
     74 H7A        -5.9590   -3.9590   -8.4640 H         1 TLC1        0.0000
     75 H7B        -6.1490   -5.6830   -7.9890 H         1 TLC1        0.0000
     76 CA8        -4.1410   -5.1620   -8.6390 C.3       1 TLC1        0.0000
     77 H8A        -3.6920   -6.0430   -8.1280 H         1 TLC1        0.0000
     78 H8B        -3.4240   -4.3260   -8.4970 H         1 TLC1        0.0000
     79 CA9        -4.3630   -5.4680  -10.1010 C.2       1 TLC1        0.0000
     80 H9A        -4.8640   -6.4290  -10.2940 H         1 TLC1        0.0000
     81 CA10       -4.0300   -4.6930  -11.1520 C.2       1 TLC1        0.0000
     82 H10A       -4.2610   -5.0600  -12.1640 H         1 TLC1        0.0000
     83 CA11       -3.3550   -3.3410  -11.1100 C.3       1 TLC1        0.0000
     84 H11A       -2.3340   -3.4290  -11.5410 H         1 TLC1        0.0000
     85 H11B       -3.1960   -3.0030  -10.0660 H         1 TLC1        0.0000
     86 CA12       -4.1270   -2.3000  -11.8820 C.2       1 TLC1        0.0000
     87 H12A       -3.9920   -2.3450  -12.9750 H         1 TLC1        0.0000
     88 CA13       -4.9350   -1.3480  -11.3750 C.2       1 TLC1        0.0000
     89 H13A       -5.4330   -0.6560  -12.0730 H         1 TLC1        0.0000
     90 CA14       -5.2640   -1.1040   -9.9210 C.3       1 TLC1        0.0000
     91 H14A       -4.7460   -1.8160   -9.2410 H         1 TLC1        0.0000
     92 H14B       -6.3550   -1.2510   -9.7590 H         1 TLC1        0.0000
     93 CA15       -4.9030    0.3300   -9.4890 C.3       1 TLC1        0.0000
     94 H15A       -5.3800    1.0590  -10.1840 H         1 TLC1        0.0000
     95 H15B       -3.8010    0.4740   -9.5490 H         1 TLC1        0.0000
     96 CA16       -5.3750    0.6570   -8.0640 C.3       1 TLC1        0.0000
     97 H16A       -4.8710   -0.0230   -7.3420 H         1 TLC1        0.0000
     98 H16B       -6.4700    0.4730   -7.9940 H         1 TLC1        0.0000
     99 CA17       -5.0900    2.1120   -7.6690 C.3       1 TLC1        0.0000
    100 H17A       -5.5600    2.7860   -8.4210 H         1 TLC1        0.0000
    101 H17B       -3.9910    2.2850   -7.7080 H         1 TLC1        0.0000
    102 CA18       -5.6110    2.4780   -6.2760 C.3       1 TLC1        0.0000
    103 H18A       -5.1530    1.8260   -5.5020 H         1 TLC1        0.0000
    104 H18B       -6.7140    2.3550   -6.2280 H         1 TLC1        0.0000
    105 H18C       -5.3640    3.5340   -6.0330 H         1 TLC1        0.0000
    106 CB3         1.9750   -7.3220   -1.9060 C.3       1 TLC1        0.0000
    107 H3D         2.2700   -8.3750   -1.7100 H         1 TLC1        0.0000
    108 H3E         2.2530   -6.7270   -1.0020 H         1 TLC1        0.0000
    109 CB4         2.8010   -6.7300   -3.0570 C.3       1 TLC1        0.0000
    110 H4D         3.8500   -6.6190   -2.7000 H         1 TLC1        0.0000
    111 H4E         2.4160   -5.7100   -3.2780 H         1 TLC1        0.0000
    112 CB5         2.8060   -7.5690   -4.3440 C.3       1 TLC1        0.0000
    113 H5D         1.7570   -7.7990   -4.6370 H         1 TLC1        0.0000
    114 H5E         3.3190   -8.5340   -4.1370 H         1 TLC1        0.0000
    115 CB6         3.5010   -6.8690   -5.5280 C.3       1 TLC1        0.0000
    116 H6D         2.8800   -6.0010   -5.8430 H         1 TLC1        0.0000
    117 H6E         3.5490   -7.5730   -6.3880 H         1 TLC1        0.0000
    118 CB7         4.9170   -6.3570   -5.2140 C.3       1 TLC1        0.0000
    119 H7D         5.5450   -7.2130   -4.8790 H         1 TLC1        0.0000
    120 H7E         4.8610   -5.6230   -4.3780 H         1 TLC1        0.0000
    121 CB8         5.5740   -5.6540   -6.4160 C.3       1 TLC1        0.0000
    122 H8D         4.8880   -4.8390   -6.7400 H         1 TLC1        0.0000
    123 H8E         5.6440   -6.3740   -7.2610 H         1 TLC1        0.0000
    124 CB9         6.9450   -5.1270   -6.0660 C.2       1 TLC1        0.0000
    125 H9D         7.6900   -5.9050   -5.8380 H         1 TLC1        0.0000
    126 CB10        7.3140   -3.8330   -5.9760 C.2       1 TLC1        0.0000
    127 H10D        8.3540   -3.6000   -5.6980 H         1 TLC1        0.0000
    128 CB11        6.4480   -2.6220   -6.2300 C.3       1 TLC1        0.0000
    129 H11D        5.6880   -2.8500   -7.0070 H         1 TLC1        0.0000
    130 H11E        7.0770   -1.8210   -6.6760 H         1 TLC1        0.0000
    131 CB12        5.8140   -2.0870   -4.9630 C.2       1 TLC1        0.0000
    132 H12D        6.5320   -1.8110   -4.1740 H         1 TLC1        0.0000
    133 CB13        4.5030   -1.8880   -4.7170 C.2       1 TLC1        0.0000
    134 H13D        4.2070   -1.4700   -3.7390 H         1 TLC1        0.0000
    135 CB14        3.3470   -2.1770   -5.6410 C.3       1 TLC1        0.0000
    136 H14D        3.6840   -2.6520   -6.5860 H         1 TLC1        0.0000
    137 H14E        2.8340   -1.2270   -5.9140 H         1 TLC1        0.0000
    138 CB15        2.3190   -3.1200   -4.9920 C.3       1 TLC1        0.0000
    139 H15D        1.8460   -2.6200   -4.1170 H         1 TLC1        0.0000
    140 H15E        2.8420   -4.0300   -4.6210 H         1 TLC1        0.0000
    141 CB16        1.2300   -3.5550   -5.9830 C.3       1 TLC1        0.0000
    142 H16D        1.7120   -4.0670   -6.8420 H         1 TLC1        0.0000
    143 H16E        0.7160   -2.6510   -6.3730 H         1 TLC1        0.0000
    144 CB17        0.1920   -4.4970   -5.3670 C.3       1 TLC1        0.0000
    145 H17D       -0.2960   -3.9750   -4.5130 H         1 TLC1        0.0000
    146 H17E        0.7120   -5.3880   -4.9500 H         1 TLC1        0.0000
    147 CB18       -0.8740   -4.9570   -6.3660 C.3       1 TLC1        0.0000
    148 H18D       -0.4080   -5.5190   -7.2030 H         1 TLC1        0.0000
    149 H18E       -1.4130   -4.0820   -6.7880 H         1 TLC1        0.0000
    150 H18F       -1.6160   -5.6160   -5.8650 H         1 TLC1        0.0000
    151 CC3        -1.5110    0.1410   -4.5110 C.3       1 TLC1        0.0000
    152 H3R        -1.8970    0.6350   -3.5890 H         1 TLC1        0.0000
    153 H3S        -1.9780   -0.8690   -4.5550 H         1 TLC1        0.0000
    154 CC4        -1.9670    0.9440   -5.7450 C.3       1 TLC1        0.0000
    155 H4R        -1.7050    2.0150   -5.5880 H         1 TLC1        0.0000
    156 H4S        -3.0760    0.8840   -5.8030 H         1 TLC1        0.0000
    157 CC5        -1.3750    0.4920   -7.0910 C.3       1 TLC1        0.0000
    158 H5R        -0.2750    0.6510   -7.0700 H         1 TLC1        0.0000
    159 H5S        -1.7890    1.1400   -7.8960 H         1 TLC1        0.0000
    160 CC6        -1.6840   -0.9720   -7.4310 C.3       1 TLC1        0.0000
    161 H6R        -2.7850   -1.1190   -7.3850 H         1 TLC1        0.0000
    162 H6S        -1.2280   -1.6260   -6.6550 H         1 TLC1        0.0000
    163 CC7        -1.1870   -1.4230   -8.8150 C.3       1 TLC1        0.0000
    164 H7R        -1.8280   -0.9560   -9.5970 H         1 TLC1        0.0000
    165 H7S        -1.3280   -2.5270   -8.8760 H         1 TLC1        0.0000
    166 CC8         0.2870   -1.0760   -9.0980 C.3       1 TLC1        0.0000
    167 H8R         0.8840   -1.3750   -8.2100 H         1 TLC1        0.0000
    168 H8S         0.3830    0.0290   -9.1910 H         1 TLC1        0.0000
    169 CC9         0.7720   -1.7350  -10.3660 C.2       1 TLC1        0.0000
    170 H9R         0.1240   -1.5670  -11.2410 H         1 TLC1        0.0000
    171 CC10        1.8650   -2.5080  -10.5180 C.2       1 TLC1        0.0000
    172 H10R        2.0740   -2.9250  -11.5160 H         1 TLC1        0.0000
    173 CC11        2.8860   -2.8730   -9.4690 C.3       1 TLC1        0.0000
    174 H11R        2.6240   -2.4430   -8.4800 H         1 TLC1        0.0000
    175 H11S        3.8560   -2.4040   -9.7350 H         1 TLC1        0.0000
    176 CC12        3.0130   -4.3700   -9.3290 C.2       1 TLC1        0.0000
    177 H12R        2.1130   -4.8620   -8.9260 H         1 TLC1        0.0000
    178 CC13        4.0790   -5.1380   -9.6250 C.2       1 TLC1        0.0000
    179 H13R        4.0040   -6.2230   -9.4590 H         1 TLC1        0.0000
    180 CC14        5.4030   -4.6860  -10.1910 C.3       1 TLC1        0.0000
    181 H14R        6.1970   -4.8150   -9.4210 H         1 TLC1        0.0000
    182 H14S        5.3990   -3.6110  -10.4680 H         1 TLC1        0.0000
    183 CC15        5.8110   -5.4890  -11.4420 C.3       1 TLC1        0.0000
    184 H15R        5.8780   -6.5720  -11.1930 H         1 TLC1        0.0000
    185 H15S        6.8290   -5.1580  -11.7500 H         1 TLC1        0.0000
    186 CC16        4.8640   -5.3020  -12.6390 C.3       1 TLC1        0.0000
    187 H16R        4.7700   -4.2170  -12.8650 H         1 TLC1        0.0000
    188 H16S        3.8510   -5.6780  -12.3750 H         1 TLC1        0.0000
    189 CC17        5.3570   -6.0340  -13.8940 C.3       1 TLC1        0.0000
    190 H17R        5.4930   -7.1120  -13.6510 H         1 TLC1        0.0000
    191 H17S        6.3550   -5.6260  -14.1750 H         1 TLC1        0.0000
    192 CC18        4.4080   -5.9060  -15.0880 C.3       1 TLC1        0.0000
    193 H18R        4.2340   -4.8370  -15.3360 H         1 TLC1        0.0000
    194 H18S        3.4260   -6.3720  -14.8560 H         1 TLC1        0.0000
    195 H18T        4.8320   -6.4100  -15.9830 H         1 TLC1        0.0000
    196 CD3         6.3950    0.4290   -8.9590 C.3       1 TLC1        0.0000
    197 H3X         7.2590    0.0150   -8.3880 H         1 TLC1        0.0000
    198 H3Y         6.6620    1.4660   -9.2630 H         1 TLC1        0.0000
    199 CD4         6.2050   -0.4400  -10.2130 C.3       1 TLC1        0.0000
    200 H4X         6.0290   -1.4900   -9.8880 H         1 TLC1        0.0000
    201 H4Y         7.1440   -0.4290  -10.8110 H         1 TLC1        0.0000
    202 CD5         5.0380    0.0040  -11.1090 C.3       1 TLC1        0.0000
    203 H5X         5.2170    1.0390  -11.4720 H         1 TLC1        0.0000
    204 H5Y         4.0990    0.0110  -10.5110 H         1 TLC1        0.0000
    205 CD6         4.8180   -0.9310  -12.3080 C.3       1 TLC1        0.0000
    206 H6X         4.7030   -1.9690  -11.9240 H         1 TLC1        0.0000
    207 H6Y         5.7080   -0.9130  -12.9730 H         1 TLC1        0.0000
    208 CD7         3.5530   -0.5690  -13.1030 C.3       1 TLC1        0.0000
    209 H7X         3.7050    0.3860  -13.6520 H         1 TLC1        0.0000
    210 H7Y         2.7320   -0.3950  -12.3700 H         1 TLC1        0.0000
    211 CD8         3.0870   -1.6840  -14.0610 C.3       1 TLC1        0.0000
    212 H8X         2.0410   -1.4490  -14.3560 H         1 TLC1        0.0000
    213 H8Y         3.0490   -2.6400  -13.4950 H         1 TLC1        0.0000
    214 CD9         3.9810   -1.8440  -15.2650 C.2       1 TLC1        0.0000
    215 H9X         5.0580   -1.7500  -15.0570 H         1 TLC1        0.0000
    216 CD10        3.5860   -2.0870  -16.5310 C.2       1 TLC1        0.0000
    217 H10X        4.3580   -2.1810  -17.3100 H         1 TLC1        0.0000
    218 CD11        2.1690   -2.2660  -17.0250 C.3       1 TLC1        0.0000
    219 H11X        2.0320   -1.6770  -17.9590 H         1 TLC1        0.0000
    220 H11Y        1.4340   -1.8340  -16.3140 H         1 TLC1        0.0000
    221 CD12        1.8610   -3.7180  -17.3060 C.2       1 TLC1        0.0000
    222 H12X        2.3470   -4.1180  -18.2100 H         1 TLC1        0.0000
    223 CD13        1.0690   -4.5450  -16.5930 C.2       1 TLC1        0.0000
    224 H13X        0.9580   -5.5850  -16.9380 H         1 TLC1        0.0000
    225 CD14        0.3080   -4.2330  -15.3260 C.3       1 TLC1        0.0000
    226 H14X       -0.7750   -4.4400  -15.4800 H         1 TLC1        0.0000
    227 H14Y        0.3920   -3.1640  -15.0320 H         1 TLC1        0.0000
    228 CD15        0.8050   -5.0920  -14.1490 C.3       1 TLC1        0.0000
    229 H15X        1.8600   -4.8200  -13.9160 H         1 TLC1        0.0000
    230 H15Y        0.7860   -6.1690  -14.4320 H         1 TLC1        0.0000
    231 CD16       -0.0410   -4.9180  -12.8790 C.3       1 TLC1        0.0000
    232 H16X       -1.0980   -5.1860  -13.1020 H         1 TLC1        0.0000
    233 H16Y       -0.0220   -3.8500  -12.5690 H         1 TLC1        0.0000
    234 CD17        0.4620   -5.7910  -11.7220 C.3       1 TLC1        0.0000
    235 H17X        1.5240   -5.5280  -11.5180 H         1 TLC1        0.0000
    236 H17Y        0.4420   -6.8580  -12.0440 H         1 TLC1        0.0000
    237 CD18       -0.3530   -5.6400  -10.4350 C.3       1 TLC1        0.0000
    238 H18X       -1.4080   -5.9410  -10.6050 H         1 TLC1        0.0000
    239 H18Y       -0.3430   -4.5840  -10.0880 H         1 TLC1        0.0000
    240 H18Z        0.0680   -6.2780   -9.6290 H         1 TLC1        0.0000
@<TRIPOS>BOND
     1  222  221 1 
     2  219  218 1 
     3  217  216 1 
     4  221  218 1 
     5  221  223 2 
     6  218  216 1 
     7  218  220 1 
     8  224  223 1 
     9  223  225 1 
    10  216  214 2 
    11  195  192 1 
    12  226  225 1 
    13  193  192 1 
    14  225  227 1 
    15  225  228 1 
    16  214  215 1 
    17  214  211 1 
    18  192  194 1 
    19  192  189 1 
    20  230  228 1 
    21  212  211 1 
    22  191  189 1 
    23  228  229 1 
    24  228  231 1 
    25  211  213 1 
    26  211  208 1 
    27  189  190 1 
    28  189  186 1 
    29  209  208 1 
    30  208  210 1 
    31  208  205 1 
    32  232  231 1 
    33   87   86 1 
    34  207  205 1 
    35  231  233 1 
    36  231  234 1 
    37  187  186 1 
    38  186  188 1 
    39  186  183 1 
    40  205  206 1 
    41  205  202 1 
    42   82   81 1 
    43   89   88 1 
    44  236  234 1 
    45   86   88 2 
    46   86   83 1 
    47  185  183 1 
    48  234  235 1 
    49  234  237 1 
    50   84   83 1 
    51  172  171 1 
    52  203  202 1 
    53  183  184 1 
    54  183  180 1 
    55   88   90 1 
    56  170  169 1 
    57   81   83 1 
    58   81   79 2 
    59   83   85 1 
    60  202  204 1 
    61  202  199 1 
    62  201  199 1 
    63  238  237 1 
    64  171  169 2 
    65  171  173 1 
    66  182  180 1 
    67  237  239 1 
    68  237  240 1 
    69  169  166 1 
    70   80   79 1 
    71  199  200 1 
    72  199  196 1 
    73  180  178 1 
    74  180  181 1 
    75   94   93 1 
    76   79   76 1 
    77   90   92 1 
    78   90   93 1 
    79   90   91 1 
    80  175  173 1 
    81  178  179 1 
    82  178  176 2 
    83  164  163 1 
    84   95   93 1 
    85   93   96 1 
    86  173  176 1 
    87  173  174 1 
    88  176  177 1 
    89  198  196 1 
    90  168  166 1 
    91  166  163 1 
    92  166  167 1 
    93  196  197 1 
    94  196   58 1 
    95  165  163 1 
    96  163  160 1 
    97   76   78 1 
    98   76   77 1 
    99   76   73 1 
   100   59   58 1 
   101   74   73 1 
   102  100   99 1 
   103   96   98 1 
   104   96   99 1 
   105   96   97 1 
   106   58   60 1 
   107   58   56 1 
   108   75   73 1 
   109   73   70 1 
   110  159  157 1 
   111  101   99 1 
   112   99  102 1 
   113  160  161 1 
   114  160  157 1 
   115  160  162 1 
   116  123  121 1 
   117  148  147 1 
   118  157  158 1 
   119  157  154 1 
   120  129  128 1 
   121  142  141 1 
   122   69   67 1 
   123  149  147 1 
   124  122  121 1 
   125   68   67 1 
   126   56   57 2 
   127   56   55 1 
   128  130  128 1 
   129  136  135 1 
   130   70   67 1 
   131   70   71 1 
   132   70   72 1 
   133  121  124 1 
   134  121  118 1 
   135  117  115 1 
   136  143  141 1 
   137  147  150 1 
   138  147  144 1 
   139  102  104 1 
   140  102  105 1 
   141  102  103 1 
   142   67   64 1 
   143  128  126 1 
   144  128  131 1 
   145   55   52 1 
   146  124  126 2 
   147  124  125 1 
   148  141  144 1 
   149  141  138 1 
   150  126  127 1 
   151  137  135 1 
   152  116  115 1 
   153  156  154 1 
   154  154  155 1 
   155  154  151 1 
   156  135  138 1 
   157  135  133 1 
   158  115  118 1 
   159  115  112 1 
   160  144  146 1 
   161  144  145 1 
   162   51   49 1 
   163  118  119 1 
   164  118  120 1 
   165  138  140 1 
   166  138  139 1 
   167  131  133 2 
   168  131  132 1 
   169   64   65 1 
   170   64   66 1 
   171   64   61 1 
   172   52   54 1 
   173   52   44 1 
   174   52   53 1 
   175   45   44 1 
   176  133  134 1 
   177  113  112 1 
   178   63   61 1 
   179  153  151 1 
   180  151   49 1 
   181  151  152 1 
   182   49   47 1 
   183   49   50 1 
   184  112  114 1 
   185  112  109 1 
   186   46   47 1 
   187   46   44 1 
   188   47   48 2 
   189   44    9 1 
   190   61   62 1 
   191   61   32 1 
   192  111  109 1 
   193  109  110 1 
   194  109  106 1 
   195   43   41 1 
   196   42   41 1 
   197    9   10 1 
   198    9   11 1 
   199    9    8 1 
   200   32   33 1 
   201   32   34 1 
   202   32   30 1 
   203   31   30 2 
   204   41  106 1 
   205   41   39 1 
   206  106  107 1 
   207  106  108 1 
   208    8    4 1 
   209   30   29 1 
   210   14   15 1 
   211   14   12 1 
   212   18   16 1 
   213   38   39 1 
   214   38   35 1 
   215    3    1 1 
   216   39   40 2 
   217   29   27 1 
   218    4    7 1 
   219    4    6 2 
   220    4    5 1 
   221   16   12 1 
   222   16   22 1 
   223   16   17 1 
   224   36   35 1 
   225    7    1 1 
   226   12    1 1 
   227   12   13 1 
   228    1    2 1 
   229   35   27 1 
   230   35   37 1 
   231   22   19 1 
   232   28   27 1 
   233   27   24 1 
   234   21   19 2 
   235   19   23 1 
   236   19   20 1 
   237   24   25 1 
   238   24   23 1 
   239   24   26 1 
