@<TRIPOS>MOLECULE
C:\Users\Praveer\PycharmProjects\pdb_to_mol2_converter\data\pdb\tmam.pdb
   13    12     0     0     0
SMALL
GASTEIGER

@<TRIPOS>ATOM
      1 N1          1.4470    0.0370    0.0630 N.3       1 TMA1        0.0000
      2 C1          1.9840    1.4050   -0.0150 C.3       1 TMA1        0.0000
      3 C2         -0.0230    0.0040    0.0000 C.3       1 TMA1        0.0000
      4 C3          1.9790   -0.7130    1.2120 C.3       1 TMA1        0.0000
      5 H11         1.6690    2.0110    0.8630 H         1 TMA1        0.0000
      6 H12         1.6280    1.9150   -0.9380 H         1 TMA1        0.0000
      7 H13         3.0960    1.3890   -0.0490 H         1 TMA1        0.0000
      8 H21        -0.3890    0.5080   -0.9220 H         1 TMA1        0.0000
      9 H22        -0.4750    0.5140    0.8800 H         1 TMA1        0.0000
     10 H23        -0.3920   -1.0460   -0.0230 H         1 TMA1        0.0000
     11 H31         1.6660   -0.2510    2.1740 H         1 TMA1        0.0000
     12 H32         3.0910   -0.7410    1.1820 H         1 TMA1        0.0000
     13 H33         1.6180   -1.7660    1.1960 H         1 TMA1        0.0000
@<TRIPOS>BOND
     1    6    2 1 
     2    8    3 1 
     3    7    2 1 
     4   10    3 1 
     5    2    1 1 
     6    2    5 1 
     7    3    1 1 
     8    3    9 1 
     9    1    4 1 
    10   12    4 1 
    11   13    4 1 
    12    4   11 1 
