@<TRIPOS>MOLECULE
C:\Users\Praveer\PycharmProjects\pdb_to_mol2_converter\data\pdb\tmao.pdb
   14    13     0     0     0
SMALL
GASTEIGER

@<TRIPOS>ATOM
      1 N           1.4920    0.0170   -0.0400 N.4       1 TMA1        0.0000
      2 C1          2.0020    1.4120   -0.0130 C.3       1 TMA1        0.0000
      3 C2          0.0050    0.0070   -0.0190 C.3       1 TMA1        0.0000
      4 C3          1.9980   -0.6990   -1.2400 C.3       1 TMA1        0.0000
      5 O1          1.9430   -0.6300    1.0720 O.3       1 TMA1        0.0000
      6 H11         1.6650    1.8870    0.9000 H         1 TMA1        0.0000
      7 H12         1.6780    1.9770   -0.8690 H         1 TMA1        0.0000
      8 H13         3.0840    1.3850    0.0310 H         1 TMA1        0.0000
      9 H21        -0.4130    0.5060   -0.8750 H         1 TMA1        0.0000
     10 H22        -0.3310    0.4820    0.8940 H         1 TMA1        0.0000
     11 H23        -0.3340   -1.0200    0.0200 H         1 TMA1        0.0000
     12 H31         3.0800   -0.7260   -1.1960 H         1 TMA1        0.0000
     13 H32         1.6740   -0.2330   -2.1540 H         1 TMA1        0.0000
     14 H33         1.6580   -1.7260   -1.2000 H         1 TMA1        0.0000
@<TRIPOS>BOND
     1   13    4 1 
     2    4   14 1 
     3    4   12 1 
     4    4    1 1 
     5    9    3 1 
     6    7    2 1 
     7    1    3 1 
     8    1    2 1 
     9    1    5 1 
    10    3   11 1 
    11    3   10 1 
    12    2    8 1 
    13    2    6 1 
