@<TRIPOS>MOLECULE
C:\Users\Praveer\PycharmProjects\pdb_to_mol2_converter\data\pdb\tmaop.pdb
   15    14     0     0     0
SMALL
GASTEIGER

@<TRIPOS>ATOM
      1 N           1.4330    0.0710    0.0700 N.4       1 TMA1        0.0000
      2 C1          2.0080    1.4440   -0.0150 C.3       1 TMA1        0.0000
      3 C2         -0.0550    0.0080    0.0010 C.3       1 TMA1        0.0000
      4 C3          1.9970   -0.7260    1.1950 C.3       1 TMA1        0.0000
      5 H11         1.7760    2.0080    0.8850 H         1 TMA1        0.0000
      6 H12         1.6230    2.0080   -0.8550 H         1 TMA1        0.0000
      7 H13         3.0900    1.4040   -0.0960 H         1 TMA1        0.0000
      8 H21        -0.4600    0.5590   -0.8390 H         1 TMA1        0.0000
      9 H22        -0.4940    0.4260    0.9030 H         1 TMA1        0.0000
     10 H23        -0.3940   -1.0220   -0.0700 H         1 TMA1        0.0000
     11 H31         1.7170   -0.3120    2.1560 H         1 TMA1        0.0000
     12 H32         3.0800   -0.7570    1.1380 H         1 TMA1        0.0000
     13 H33         1.6480   -1.7530    1.1510 H         1 TMA1        0.0000
     14 O           1.9050   -0.6200   -1.0460 O.3       1 TMA1        0.0000
     15 HO          1.5620   -0.1390   -1.8040 H         1 TMA1        0.0000
@<TRIPOS>BOND
     1   15   14 1 
     2   14    1 1 
     3    6    2 1 
     4    8    3 1 
     5    7    2 1 
     6   10    3 1 
     7    2    1 1 
     8    2    5 1 
     9    3    1 1 
    10    3    9 1 
    11    1    4 1 
    12   12    4 1 
    13   13    4 1 
    14    4   11 1 
