@<TRIPOS>MOLECULE
C:\Users\Praveer\PycharmProjects\pdb_to_mol2_converter\data\pdb\tmch.pdb
   28    28     0     0     0
SMALL
GASTEIGER

@<TRIPOS>ATOM
      1 C1         -0.0400    0.0770   -0.0850 C.3       1 TMC1        0.0000
      2 C2          1.5060   -0.0250   -0.0360 C.3       1 TMC1        0.0000
      3 H21         1.8610   -0.5340   -0.9610 H         1 TMC1        0.0000
      4 H22         1.8060   -0.6520    0.8300 H         1 TMC1        0.0000
      5 C3          2.1690    1.3490    0.0480 C.3       1 TMC1        0.0000
      6 H31         3.2740    1.2430    0.1000 H         1 TMC1        0.0000
      7 H32         1.8370    1.8770    0.9690 H         1 TMC1        0.0000
      8 C4          1.7830    2.1690   -1.1900 C.3       1 TMC1        0.0000
      9 H41         2.3620    1.7770   -2.0560 H         1 TMC1        0.0000
     10 H42         2.1110    3.2200   -1.0310 H         1 TMC1        0.0000
     11 C5          0.3140    2.1260   -1.5350 C.2       1 TMC1        0.0000
     12 C6         -0.5200    1.1490   -1.0690 C.2       1 TMC1        0.0000
     13 C7         -1.9960    1.1200   -1.4280 C.3       1 TMC1        0.0000
     14 H71        -2.6160    0.9000   -0.5340 H         1 TMC1        0.0000
     15 H72        -2.2020    0.3240   -2.1750 H         1 TMC1        0.0000
     16 H73        -2.3940    2.0710   -1.8370 H         1 TMC1        0.0000
     17 C16        -0.5820   -1.3150   -0.4810 C.3       1 TMC1        0.0000
     18 H161       -0.1650   -2.0860    0.2000 H         1 TMC1        0.0000
     19 H162       -0.2840   -1.5740   -1.5200 H         1 TMC1        0.0000
     20 H163       -1.6870   -1.3590   -0.4020 H         1 TMC1        0.0000
     21 C17        -0.5660    0.4200    1.3280 C.3       1 TMC1        0.0000
     22 H171       -0.2590    1.4420    1.6340 H         1 TMC1        0.0000
     23 H172       -0.1600   -0.3010    2.0670 H         1 TMC1        0.0000
     24 H173       -1.6730    0.3590    1.3680 H         1 TMC1        0.0000
     25 C18        -0.0920    3.2150   -2.5030 C.3       1 TMC1        0.0000
     26 H181        0.6420    3.2750   -3.3350 H         1 TMC1        0.0000
     27 H182       -0.0950    4.2030   -1.9960 H         1 TMC1        0.0000
     28 H183       -1.0850    3.0780   -2.9780 H         1 TMC1        0.0000
@<TRIPOS>BOND
     1   26   25 1 
     2   28   25 1 
     3   25   27 1 
     4   25   11 1 
     5   15   13 1 
     6    9    8 1 
     7   16   13 1 
     8   11    8 1 
     9   11   12 2 
    10   19   17 1 
    11   13   12 1 
    12   13   14 1 
    13    8   10 1 
    14    8    5 1 
    15   12    1 1 
    16    3    2 1 
    17   17   20 1 
    18   17    1 1 
    19   17   18 1 
    20    1    2 1 
    21    1   21 1 
    22    2    5 1 
    23    2    4 1 
    24    5    6 1 
    25    5    7 1 
    26   21   24 1 
    27   21   22 1 
    28   21   23 1 
