@<TRIPOS>MOLECULE
C:\Users\Praveer\PycharmProjects\pdb_to_mol2_converter\data\pdb\tmcl1.pdb
  209   208     0     0     0
SMALL
GASTEIGER

@<TRIPOS>ATOM
      1 C3          1.4850   -0.1060   -0.0080 C.3       1 TMC1        0.0000
      2 HG31        1.9020   -0.4580    0.9690 H         1 TMC1        0.0000
      3 HG32        1.8460   -0.8070   -0.7900 H         1 TMC1        0.0000
      4 P3          3.0450    1.9210    0.4570 P.3       1 TMC1        0.0000
      5 OP33        2.7280    1.7820    1.8950 O.3       1 TMC1        0.0000
      6 OP34        3.2720    3.2780   -0.0760 O.2       1 TMC1        0.0000
      7 OP31        1.8650    1.2330   -0.3480 O.3       1 TMC1        0.0000
      8 OP32        4.2430    0.9620    0.0790 O.3       1 TMC1        0.0000
      9 C31         5.2550    1.3680   -0.8430 C.3       1 TMC1        0.0000
     10 H31J        6.0010    0.5440   -0.8920 H         1 TMC1        0.0000
     11 H31K        5.7890    2.2720   -0.4730 H         1 TMC1        0.0000
     12 C2         -0.0480   -0.1390    0.0880 C.3       1 TMC1        0.0000
     13 HG22       -0.4340    0.2140   -0.8950 H         1 TMC1        0.0000
     14 OG12       -0.5020   -1.4780    0.2910 O.3       1 TMC1        0.0000
     15 HO12        0.0780   -1.8530    0.9620 H         1 TMC1        0.0000
     16 C1         -0.5430    0.8430    1.2070 C.3       1 TMC1        0.0000
     17 HG11       -0.1880    1.8680    0.9630 H         1 TMC1        0.0000
     18 HG12       -0.0030    0.5610    2.1390 H         1 TMC1        0.0000
     19 P1         -2.9750    1.0120    0.3210 P.3       1 TMC1        0.0000
     20 OP13       -3.2880   -0.4270   -0.2250 O.3       1 TMC1        0.0000
     21 HP13       -2.4820   -0.9610   -0.2480 H         1 TMC1        0.0000
     22 OP14       -4.2150    1.6840    0.7360 O.2       1 TMC1        0.0000
     23 OP11       -1.9450    0.8400    1.4840 O.3       1 TMC1        0.0000
     24 OP12       -2.2230    1.8150   -0.7980 O.3       1 TMC1        0.0000
     25 C11        -2.1700    3.2360   -0.6610 C.3       1 TMC1        0.0000
     26 H11J       -1.3750    3.5210    0.0660 H         1 TMC1        0.0000
     27 H11K       -3.1310    3.6810   -0.3080 H         1 TMC1        0.0000
     28 C12        -1.7870    3.8820   -2.0320 C.3       1 TMC1        0.0000
     29 H12J       -1.3900    4.9060   -1.8310 H         1 TMC1        0.0000
     30 O12        -2.9170    3.9450   -2.9320 O.3       1 TMC1        0.0000
     31 CA1        -3.8040    4.8790   -2.6210 C.2       1 TMC1        0.0000
     32 OA1        -3.7130    5.6540   -1.6850 O.2       1 TMC1        0.0000
     33 CA2        -4.9520    4.8650   -3.6280 C.3       1 TMC1        0.0000
     34 H2A        -5.6930    5.6190   -3.2860 H         1 TMC1        0.0000
     35 H2B        -5.4260    3.8630   -3.6070 H         1 TMC1        0.0000
     36 C13        -0.6420    3.0900   -2.7220 C.3       1 TMC1        0.0000
     37 H13J       -1.0540    2.0860   -2.9810 H         1 TMC1        0.0000
     38 H13K        0.1770    2.9290   -1.9850 H         1 TMC1        0.0000
     39 O13        -0.1200    3.8240   -3.8530 O.3       1 TMC1        0.0000
     40 CB1        -0.0080    3.1500   -4.9960 C.2       1 TMC1        0.0000
     41 OB1        -0.3900    2.0100   -5.1910 O.2       1 TMC1        0.0000
     42 CB2         0.6680    4.0490   -6.0380 C.3       1 TMC1        0.0000
     43 H2D         1.6700    4.3080   -5.6310 H         1 TMC1        0.0000
     44 H2E         0.0740    4.9790   -6.1340 H         1 TMC1        0.0000
     45 C32         4.7690    1.6290   -2.3080 C.3       1 TMC1        0.0000
     46 H32J        4.2700    2.6290   -2.3040 H         1 TMC1        0.0000
     47 O32         3.8570    0.5850   -2.7160 O.3       1 TMC1        0.0000
     48 CC1         2.9180    0.9750   -3.5680 C.2       1 TMC1        0.0000
     49 OC1         2.8290    2.0720   -4.0900 O.2       1 TMC1        0.0000
     50 CC2         1.9330   -0.1660   -3.8190 C.3       1 TMC1        0.0000
     51 H2R         1.0820    0.2460   -4.3970 H         1 TMC1        0.0000
     52 H2S         1.5460   -0.5040   -2.8400 H         1 TMC1        0.0000
     53 C33         6.0110    1.7030   -3.2490 C.3       1 TMC1        0.0000
     54 H33J        6.6170    0.7930   -3.0440 H         1 TMC1        0.0000
     55 H33K        6.6350    2.5780   -2.9530 H         1 TMC1        0.0000
     56 O33         5.6810    1.6930   -4.6510 O.3       1 TMC1        0.0000
     57 CD1         5.5370    2.8790   -5.2290 C.2       1 TMC1        0.0000
     58 OD1         5.7200    3.9610   -4.7060 O.2       1 TMC1        0.0000
     59 CD2         5.1870    2.6350   -6.6960 C.3       1 TMC1        0.0000
     60 H2X         4.3700    1.8860   -6.7320 H         1 TMC1        0.0000
     61 H2Y         6.0880    2.1990   -7.1770 H         1 TMC1        0.0000
     62 CA3        -4.4710    5.2100   -5.0550 C.3       1 TMC1        0.0000
     63 H3A        -3.7800    4.4160   -5.4220 H         1 TMC1        0.0000
     64 H3B        -3.8990    6.1660   -5.0290 H         1 TMC1        0.0000
     65 CA4        -5.6240    5.3710   -6.0570 C.3       1 TMC1        0.0000
     66 H4A        -6.3640    6.1010   -5.6580 H         1 TMC1        0.0000
     67 H4B        -6.1410    4.3940   -6.1810 H         1 TMC1        0.0000
     68 CA5        -5.1210    5.8680   -7.4200 C.3       1 TMC1        0.0000
     69 H5A        -4.3140    5.1840   -7.7700 H         1 TMC1        0.0000
     70 H5B        -4.6730    6.8790   -7.2900 H         1 TMC1        0.0000
     71 CA6        -6.2040    5.9410   -8.5080 C.3       1 TMC1        0.0000
     72 H6A        -7.0290    6.6100   -8.1810 H         1 TMC1        0.0000
     73 H6B        -6.6280    4.9240   -8.6610 H         1 TMC1        0.0000
     74 CA7        -5.6180    6.4460   -9.8370 C.3       1 TMC1        0.0000
     75 H7A        -4.7300    5.8120  -10.0660 H         1 TMC1        0.0000
     76 H7B        -5.2530    7.4900   -9.7180 H         1 TMC1        0.0000
     77 CA8        -6.5720    6.3610  -11.0410 C.3       1 TMC1        0.0000
     78 H8A        -7.1230    5.3960  -11.0150 H         1 TMC1        0.0000
     79 H8B        -5.9400    6.3650  -11.9580 H         1 TMC1        0.0000
     80 CA9        -7.5680    7.5290  -11.1470 C.3       1 TMC1        0.0000
     81 H9A        -7.0000    8.4860  -11.1840 H         1 TMC1        0.0000
     82 H9B        -8.1970    7.5500  -10.2290 H         1 TMC1        0.0000
     83 CA10       -8.4860    7.4500  -12.3840 C.3       1 TMC1        0.0000
     84 H10A       -9.1900    8.3130  -12.3600 H         1 TMC1        0.0000
     85 H10B       -9.0930    6.5200  -12.3270 H         1 TMC1        0.0000
     86 CA11       -7.7320    7.4740  -13.7250 C.3       1 TMC1        0.0000
     87 H11A       -7.0640    6.5880  -13.7910 H         1 TMC1        0.0000
     88 H11B       -7.0930    8.3840  -13.7660 H         1 TMC1        0.0000
     89 CA12       -8.6620    7.4600  -14.9490 C.3       1 TMC1        0.0000
     90 H12A       -9.3110    8.3630  -14.9300 H         1 TMC1        0.0000
     91 H12B       -9.3220    6.5660  -14.8950 H         1 TMC1        0.0000
     92 CA13       -7.8850    7.4230  -16.2730 C.3       1 TMC1        0.0000
     93 H13A       -7.2540    6.5050  -16.2910 H         1 TMC1        0.0000
     94 H13B       -7.1980    8.2980  -16.3120 H         1 TMC1        0.0000
     95 CA14       -8.7870    7.4370  -17.5100 C.3       1 TMC1        0.0000
     96 H14A       -9.3970    8.3660  -17.5350 H         1 TMC1        0.0000
     97 H14B       -9.4770    6.5670  -17.4980 H         1 TMC1        0.0000
     98 H14C       -8.1790    7.3910  -18.4390 H         1 TMC1        0.0000
     99 CB3         0.8350    3.3720   -7.4210 C.3       1 TMC1        0.0000
    100 H3D         1.3410    2.3870   -7.2990 H         1 TMC1        0.0000
    101 H3E         1.4970    4.0080   -8.0500 H         1 TMC1        0.0000
    102 CB4        -0.4920    3.1770   -8.1730 C.3       1 TMC1        0.0000
    103 H4D        -1.0210    4.1470   -8.2900 H         1 TMC1        0.0000
    104 H4E        -1.1420    2.5130   -7.5590 H         1 TMC1        0.0000
    105 CB5        -0.3100    2.5120   -9.5460 C.3       1 TMC1        0.0000
    106 H5D        -1.2060    1.8830   -9.7560 H         1 TMC1        0.0000
    107 H5E         0.5710    1.8330   -9.5100 H         1 TMC1        0.0000
    108 CB6        -0.1610    3.5030  -10.7100 C.3       1 TMC1        0.0000
    109 H6D         0.6300    4.2510  -10.4800 H         1 TMC1        0.0000
    110 H6E        -1.1210    4.0550  -10.8230 H         1 TMC1        0.0000
    111 CB7         0.1820    2.7820  -12.0230 C.3       1 TMC1        0.0000
    112 H7D        -0.2590    1.7600  -12.0030 H         1 TMC1        0.0000
    113 H7E         1.2880    2.6640  -12.0820 H         1 TMC1        0.0000
    114 CB8        -0.3290    3.4850  -13.2900 C.3       1 TMC1        0.0000
    115 H8D         0.1530    2.9990  -14.1690 H         1 TMC1        0.0000
    116 H8E        -0.0170    4.5500  -13.2890 H         1 TMC1        0.0000
    117 CB9        -1.8520    3.3810  -13.4760 C.3       1 TMC1        0.0000
    118 H9D        -2.3640    4.0930  -12.7930 H         1 TMC1        0.0000
    119 H9E        -2.1740    2.3530  -13.1950 H         1 TMC1        0.0000
    120 CB10       -2.2960    3.6330  -14.9260 C.3       1 TMC1        0.0000
    121 H10D       -3.3870    3.4290  -15.0140 H         1 TMC1        0.0000
    122 H10E       -1.7620    2.9110  -15.5850 H         1 TMC1        0.0000
    123 CB11       -2.0180    5.0650  -15.4050 C.3       1 TMC1        0.0000
    124 H11D       -0.9260    5.2610  -15.3490 H         1 TMC1        0.0000
    125 H11E       -2.5200    5.7740  -14.7090 H         1 TMC1        0.0000
    126 CB12       -2.4990    5.3510  -16.8370 C.3       1 TMC1        0.0000
    127 H12D       -2.2780    6.4170  -17.0740 H         1 TMC1        0.0000
    128 H12E       -3.6020    5.2170  -16.8880 H         1 TMC1        0.0000
    129 CB13       -1.8330    4.4650  -17.8980 C.3       1 TMC1        0.0000
    130 H13D       -2.1700    3.4120  -17.7580 H         1 TMC1        0.0000
    131 H13E       -0.7320    4.4850  -17.7370 H         1 TMC1        0.0000
    132 CB14       -2.1380    4.9020  -19.3330 C.3       1 TMC1        0.0000
    133 H14D       -1.7740    5.9380  -19.5090 H         1 TMC1        0.0000
    134 H14E       -3.2330    4.8760  -19.5240 H         1 TMC1        0.0000
    135 H14F       -1.6370    4.2270  -20.0600 H         1 TMC1        0.0000
    136 CC3         2.5550   -1.3470   -4.5920 C.3       1 TMC1        0.0000
    137 H3R         1.7970   -2.1650   -4.6300 H         1 TMC1        0.0000
    138 H3S         3.4450   -1.7430   -4.0540 H         1 TMC1        0.0000
    139 CC4         2.9250   -0.9730   -6.0330 C.3       1 TMC1        0.0000
    140 H4R         3.7740   -0.2530   -6.0170 H         1 TMC1        0.0000
    141 H4S         2.0560   -0.4630   -6.5080 H         1 TMC1        0.0000
    142 CC5         3.2990   -2.1980   -6.8780 C.3       1 TMC1        0.0000
    143 H5R         2.4570   -2.9260   -6.8360 H         1 TMC1        0.0000
    144 H5S         4.1910   -2.6910   -6.4320 H         1 TMC1        0.0000
    145 CC6         3.5820   -1.8660   -8.3510 C.3       1 TMC1        0.0000
    146 H6R         2.6860   -1.3850   -8.8000 H         1 TMC1        0.0000
    147 H6S         3.7570   -2.8250   -8.8930 H         1 TMC1        0.0000
    148 CC7         4.8100   -0.9640   -8.5550 C.3       1 TMC1        0.0000
    149 H7R         5.6270   -1.3360   -7.8950 H         1 TMC1        0.0000
    150 H7S         4.5720    0.0760   -8.2460 H         1 TMC1        0.0000
    151 CC8         5.3250   -0.9720  -10.0040 C.3       1 TMC1        0.0000
    152 H8R         5.5030   -2.0310  -10.2930 H         1 TMC1        0.0000
    153 H8S         6.3060   -0.4470  -10.0480 H         1 TMC1        0.0000
    154 CC9         4.3640   -0.3110  -11.0060 C.3       1 TMC1        0.0000
    155 H9R         4.3400    0.7840  -10.8080 H         1 TMC1        0.0000
    156 H9S         3.3340   -0.7000  -10.8470 H         1 TMC1        0.0000
    157 CC10        4.7390   -0.5510  -12.4780 C.3       1 TMC1        0.0000
    158 H10R        5.7730   -0.1880  -12.6680 H         1 TMC1        0.0000
    159 H10S        4.0470    0.0480  -13.1140 H         1 TMC1        0.0000
    160 CC11        4.6240   -2.0250  -12.8990 C.3       1 TMC1        0.0000
    161 H11R        3.6490   -2.4260  -12.5410 H         1 TMC1        0.0000
    162 H11S        5.4300   -2.6170  -12.4120 H         1 TMC1        0.0000
    163 CC12        4.7020   -2.2280  -14.4180 C.3       1 TMC1        0.0000
    164 H12R        5.6580   -1.8070  -14.8020 H         1 TMC1        0.0000
    165 H12S        3.8680   -1.6690  -14.8990 H         1 TMC1        0.0000
    166 CC13        4.6060   -3.7080  -14.8150 C.3       1 TMC1        0.0000
    167 H13R        3.7000   -4.1470  -14.3380 H         1 TMC1        0.0000
    168 H13S        5.4910   -4.2460  -14.4060 H         1 TMC1        0.0000
    169 CC14        4.5280   -3.9320  -16.3280 C.3       1 TMC1        0.0000
    170 H14R        5.4140   -3.4910  -16.8340 H         1 TMC1        0.0000
    171 H14S        3.6140   -3.4550  -16.7430 H         1 TMC1        0.0000
    172 H14T        4.4930   -5.0180  -16.5610 H         1 TMC1        0.0000
    173 CD3         4.7560    3.9040   -7.4620 C.3       1 TMC1        0.0000
    174 H3X         5.4980    4.7210   -7.3090 H         1 TMC1        0.0000
    175 H3Y         3.7770    4.2570   -7.0670 H         1 TMC1        0.0000
    176 CD4         4.6390    3.6100   -8.9620 C.3       1 TMC1        0.0000
    177 H4X         3.9820    2.7200   -9.1020 H         1 TMC1        0.0000
    178 H4Y         5.6460    3.3470   -9.3570 H         1 TMC1        0.0000
    179 CD5         4.0670    4.7690   -9.7860 C.3       1 TMC1        0.0000
    180 H5X         4.6970    5.6760   -9.6560 H         1 TMC1        0.0000
    181 H5Y         3.0450    5.0090   -9.4180 H         1 TMC1        0.0000
    182 CD6         3.9920    4.4040  -11.2740 C.3       1 TMC1        0.0000
    183 H6X         3.4630    3.4290  -11.3740 H         1 TMC1        0.0000
    184 H6Y         5.0230    4.2670  -11.6710 H         1 TMC1        0.0000
    185 CD7         3.2530    5.4440  -12.1250 C.3       1 TMC1        0.0000
    186 H7X         3.7950    6.4150  -12.0810 H         1 TMC1        0.0000
    187 H7Y         2.2340    5.6020  -11.7050 H         1 TMC1        0.0000
    188 CD8         3.1300    4.9840  -13.5820 C.3       1 TMC1        0.0000
    189 H8X         2.5990    4.0060  -13.6070 H         1 TMC1        0.0000
    190 H8Y         4.1500    4.8200  -13.9980 H         1 TMC1        0.0000
    191 CD9         2.3800    5.9780  -14.4770 C.3       1 TMC1        0.0000
    192 H9X         2.9340    6.9430  -14.4860 H         1 TMC1        0.0000
    193 H9Y         1.3700    6.1730  -14.0560 H         1 TMC1        0.0000
    194 CD10        2.2470    5.4580  -15.9150 C.3       1 TMC1        0.0000
    195 H10X        1.6710    4.5050  -15.9160 H         1 TMC1        0.0000
    196 H10Y        3.2670    5.2290  -16.2920 H         1 TMC1        0.0000
    197 CD11        1.5670    6.4590  -16.8600 C.3       1 TMC1        0.0000
    198 H11X        2.0260    7.4640  -16.7290 H         1 TMC1        0.0000
    199 H11Y        0.4940    6.5420  -16.5740 H         1 TMC1        0.0000
    200 CD12        1.6690    6.0560  -18.3400 C.3       1 TMC1        0.0000
    201 H12X        0.9380    6.6550  -18.9290 H         1 TMC1        0.0000
    202 H12Y        1.3920    4.9850  -18.4520 H         1 TMC1        0.0000
    203 CD13        3.0690    6.2920  -18.9280 C.3       1 TMC1        0.0000
    204 H13X        3.8210    5.7400  -18.3220 H         1 TMC1        0.0000
    205 H13Y        3.3070    7.3770  -18.8420 H         1 TMC1        0.0000
    206 CD14        3.2070    5.8610  -20.3910 C.3       1 TMC1        0.0000
    207 H14X        2.4740    6.4000  -21.0280 H         1 TMC1        0.0000
    208 H14Y        3.0290    4.7690  -20.4930 H         1 TMC1        0.0000
    209 H14Z        4.2300    6.0850  -20.7650 H         1 TMC1        0.0000
@<TRIPOS>BOND
     1  207  206 1 
     2  209  206 1 
     3  208  206 1 
     4  206  203 1 
     5  135  132 1 
     6  134  132 1 
     7  133  132 1 
     8  132  129 1 
     9  201  200 1 
    10  203  205 1 
    11  203  200 1 
    12  203  204 1 
    13  202  200 1 
    14   98   95 1 
    15  200  197 1 
    16  129  130 1 
    17  129  131 1 
    18  129  126 1 
    19   96   95 1 
    20   95   97 1 
    21   95   92 1 
    22  127  126 1 
    23  128  126 1 
    24  197  198 1 
    25  197  199 1 
    26  197  194 1 
    27  126  123 1 
    28  170  169 1 
    29  171  169 1 
    30  172  169 1 
    31  169  166 1 
    32   94   92 1 
    33  196  194 1 
    34   93   92 1 
    35   92   89 1 
    36  195  194 1 
    37  194  191 1 
    38  122  120 1 
    39  123  124 1 
    40  123  120 1 
    41  123  125 1 
    42  121  120 1 
    43   89   90 1 
    44   89   91 1 
    45   89   86 1 
    46  120  117 1 
    47  165  163 1 
    48  166  163 1 
    49  166  168 1 
    50  166  167 1 
    51  164  163 1 
    52  192  191 1 
    53  191  193 1 
    54  191  188 1 
    55  163  160 1 
    56  115  114 1 
    57  190  188 1 
    58   87   86 1 
    59   88   86 1 
    60   86   83 1 
    61  189  188 1 
    62  188  185 1 
    63  117  114 1 
    64  117  119 1 
    65  117  118 1 
    66  114  116 1 
    67  114  111 1 
    68  159  157 1 
    69  160  161 1 
    70  160  157 1 
    71  160  162 1 
    72  158  157 1 
    73  157  154 1 
    74   83   84 1 
    75   83   85 1 
    76   83   80 1 
    77  185  186 1 
    78  185  187 1 
    79  185  182 1 
    80  113  111 1 
    81  111  112 1 
    82  111  108 1 
    83   79   77 1 
    84  184  182 1 
    85  183  182 1 
    86  182  179 1 
    87   81   80 1 
    88   80   77 1 
    89   80   82 1 
    90   77   78 1 
    91   77   74 1 
    92  154  156 1 
    93  154  155 1 
    94  154  151 1 
    95  110  108 1 
    96  108  109 1 
    97  108  105 1 
    98  152  151 1 
    99   75   74 1 
   100  153  151 1 
   101  151  148 1 
   102   74   76 1 
   103   74   71 1 
   104  179  180 1 
   105  179  181 1 
   106  179  176 1 
   107  106  105 1 
   108  105  107 1 
   109  105  102 1 
   110  178  176 1 
   111  177  176 1 
   112  176  173 1 
   113  147  145 1 
   114  146  145 1 
   115   73   71 1 
   116  148  145 1 
   117  148  150 1 
   118  148  149 1 
   119   71   72 1 
   120   71   68 1 
   121  145  142 1 
   122  103  102 1 
   123  102  104 1 
   124  102   99 1 
   125  101   99 1 
   126   69   68 1 
   127  173  174 1 
   128  173  175 1 
   129  173   59 1 
   130   99  100 1 
   131   99   42 1 
   132   68   70 1 
   133   68   65 1 
   134   61   59 1 
   135  142  143 1 
   136  142  144 1 
   137  142  139 1 
   138   60   59 1 
   139   59   57 1 
   140  141  139 1 
   141   67   65 1 
   142   44   42 1 
   143   65   66 1 
   144   65   62 1 
   145   42   43 1 
   146   42   40 1 
   147  139  140 1 
   148  139  136 1 
   149   63   62 1 
   150   57   58 2 
   151   57   56 1 
   152   41   40 2 
   153   62   64 1 
   154   62   33 1 
   155   40   39 1 
   156   56   53 1 
   157  137  136 1 
   158  136  138 1 
   159  136   50 1 
   160   51   50 1 
   161   49   48 2 
   162   39   36 1 
   163   50   48 1 
   164   50   52 1 
   165   33   35 1 
   166   33   34 1 
   167   33   31 1 
   168   48   47 1 
   169   53   54 1 
   170   53   55 1 
   171   53   45 1 
   172   37   36 1 
   173   30   31 1 
   174   30   28 1 
   175   36   28 1 
   176   36   38 1 
   177   47   45 1 
   178   31   32 2 
   179   45   46 1 
   180   45    9 1 
   181   28   29 1 
   182   28   25 1 
   183   13   12 1 
   184   10    9 1 
   185    9   11 1 
   186    9    8 1 
   187   24   25 1 
   188   24   19 1 
   189    3    1 1 
   190   25   27 1 
   191   25   26 1 
   192    7    1 1 
   193    7    4 1 
   194   21   20 1 
   195   20   19 1 
   196    6    4 2 
   197    1   12 1 
   198    1    2 1 
   199    8    4 1 
   200   12   14 1 
   201   12   16 1 
   202   14   15 1 
   203   19   22 2 
   204   19   23 1 
   205    4    5 1 
   206   17   16 1 
   207   16   23 1 
   208   16   18 1 
