@<TRIPOS>MOLECULE
C:\Users\Praveer\PycharmProjects\pdb_to_mol2_converter\data\pdb\tmcl2.pdb
  208   207     0     0     0
SMALL
GASTEIGER

@<TRIPOS>ATOM
      1 C3          1.7180   -0.0290    0.0450 C.3       1 TMC1        0.0000
      2 HG31        2.1610   -0.6100    0.8820 H         1 TMC1        0.0000
      3 HG32        1.9940   -0.5580   -0.8950 H         1 TMC1        0.0000
      4 P3          2.3810    2.2580    1.2300 P.3       1 TMC1        0.0000
      5 OP33        1.0600    2.8750    1.4870 O.3       1 TMC1        0.0000
      6 OP34        3.5260    3.1650    1.0220 O.2       1 TMC1        0.0000
      7 OP31        2.2380    1.3040   -0.0260 O.3       1 TMC1        0.0000
      8 OP32        2.7220    1.2600    2.4180 O.3       1 TMC1        0.0000
      9 C31         2.4190    1.6330    3.7680 C.3       1 TMC1        0.0000
     10 H31J        1.4420    2.1710    3.8350 H         1 TMC1        0.0000
     11 H31K        3.2060    2.3080    4.1690 H         1 TMC1        0.0000
     12 C2          0.1720   -0.0740    0.1550 C.3       1 TMC1        0.0000
     13 HG22       -0.1270    0.3320    1.1470 H         1 TMC1        0.0000
     14 OG12       -0.3570    0.7750   -0.8550 O.3       1 TMC1        0.0000
     15 HO12        0.2630    1.5170   -0.8130 H         1 TMC1        0.0000
     16 C1         -0.4280   -1.4950   -0.0030 C.3       1 TMC1        0.0000
     17 HG11       -0.1640   -1.8770   -1.0150 H         1 TMC1        0.0000
     18 HG12       -1.5390   -1.3610    0.0330 H         1 TMC1        0.0000
     19 P1         -0.8890   -3.6570    1.3470 P.3       1 TMC1        0.0000
     20 OP13       -1.6960   -3.3550    2.5500 O.3       1 TMC1        0.0000
     21 OP14       -1.6010   -4.0760    0.1200 O.2       1 TMC1        0.0000
     22 OP11        0.0430   -2.4060    1.0080 O.3       1 TMC1        0.0000
     23 OP12        0.1530   -4.7840    1.7140 O.3       1 TMC1        0.0000
     24 C11         1.2480   -5.1400    0.8690 C.3       1 TMC1        0.0000
     25 H11J        1.4660   -4.3620    0.0980 H         1 TMC1        0.0000
     26 H11K        1.0100   -6.0890    0.3420 H         1 TMC1        0.0000
     27 C12         2.5210   -5.3470    1.7270 C.3       1 TMC1        0.0000
     28 H12J        3.3690   -5.5880    1.0460 H         1 TMC1        0.0000
     29 O12         2.2550   -6.4150    2.6560 O.3       1 TMC1        0.0000
     30 CA1         3.3090   -7.0240    3.1480 C.2       1 TMC1        0.0000
     31 OA1         4.4610   -6.8830    2.7780 O.2       1 TMC1        0.0000
     32 CA2         2.8420   -8.0020    4.2360 C.3       1 TMC1        0.0000
     33 H2A         2.8930   -9.0270    3.8190 H         1 TMC1        0.0000
     34 H2B         1.7810   -7.7760    4.4740 H         1 TMC1        0.0000
     35 C13         2.8290   -4.0190    2.4770 C.3       1 TMC1        0.0000
     36 H13J        1.9240   -3.8090    3.0850 H         1 TMC1        0.0000
     37 H13K        2.9080   -3.1910    1.7360 H         1 TMC1        0.0000
     38 O13         3.9690   -4.0620    3.3630 O.3       1 TMC1        0.0000
     39 CB1         5.1330   -3.8560    2.7700 C.2       1 TMC1        0.0000
     40 OB1         5.3330   -3.8280    1.5650 O.2       1 TMC1        0.0000
     41 CB2         6.1830   -3.5330    3.8320 C.3       1 TMC1        0.0000
     42 H2D         5.8700   -2.5870    4.3220 H         1 TMC1        0.0000
     43 H2E         7.1410   -3.3520    3.3040 H         1 TMC1        0.0000
     44 C32         2.2710    0.3760    4.6750 C.3       1 TMC1        0.0000
     45 H32J        1.5180    0.6170    5.4650 H         1 TMC1        0.0000
     46 O32         3.5320   -0.0020    5.2740 O.3       1 TMC1        0.0000
     47 CC1         3.8540    0.7100    6.3410 C.2       1 TMC1        0.0000
     48 OC1         3.2170    1.6330    6.8090 O.2       1 TMC1        0.0000
     49 CC2         5.1560    0.1660    6.9420 C.3       1 TMC1        0.0000
     50 H2R         5.9970    0.6870    6.4410 H         1 TMC1        0.0000
     51 H2S         5.2250   -0.9190    6.7230 H         1 TMC1        0.0000
     52 C33         1.6880   -0.8200    3.8700 C.3       1 TMC1        0.0000
     53 H33J        2.3730   -0.9970    3.0130 H         1 TMC1        0.0000
     54 H33K        0.6960   -0.5420    3.4470 H         1 TMC1        0.0000
     55 O33         1.6220   -2.0440    4.6220 O.3       1 TMC1        0.0000
     56 CD1         0.6410   -2.1460    5.4970 C.2       1 TMC1        0.0000
     57 OD1        -0.1270   -1.2610    5.8290 O.2       1 TMC1        0.0000
     58 CD2         0.6530   -3.5600    6.0780 C.3       1 TMC1        0.0000
     59 H2X         1.0020   -4.2630    5.2930 H         1 TMC1        0.0000
     60 H2Y        -0.4010   -3.8060    6.3270 H         1 TMC1        0.0000
     61 CA3         3.6710   -7.9060    5.5380 C.3       1 TMC1        0.0000
     62 H3A         3.1330   -8.4920    6.3210 H         1 TMC1        0.0000
     63 H3B         3.7360   -6.8530    5.8910 H         1 TMC1        0.0000
     64 CA4         5.0800   -8.4940    5.3960 C.3       1 TMC1        0.0000
     65 H4A         5.6950   -7.8510    4.7260 H         1 TMC1        0.0000
     66 H4B         5.0050   -9.4990    4.9230 H         1 TMC1        0.0000
     67 CA5         5.8140   -8.6240    6.7330 C.3       1 TMC1        0.0000
     68 H5A         5.2110   -9.2530    7.4230 H         1 TMC1        0.0000
     69 H5B         5.9160   -7.6180    7.1950 H         1 TMC1        0.0000
     70 CA6         7.2030   -9.2470    6.5620 C.3       1 TMC1        0.0000
     71 H6A         7.8090   -8.6140    5.8760 H         1 TMC1        0.0000
     72 H6B         7.0970  -10.2470    6.0830 H         1 TMC1        0.0000
     73 CA7         7.9390   -9.4030    7.8980 C.3       1 TMC1        0.0000
     74 H7A         7.3340  -10.0490    8.5740 H         1 TMC1        0.0000
     75 H7B         8.0330   -8.4050    8.3780 H         1 TMC1        0.0000
     76 CA8         9.3310  -10.0200    7.7220 C.3       1 TMC1        0.0000
     77 H8A         9.9310   -9.3910    7.0260 H         1 TMC1        0.0000
     78 H8B         9.2190  -11.0250    7.2550 H         1 TMC1        0.0000
     79 CA9        10.0990  -10.1600    9.0430 C.3       1 TMC1        0.0000
     80 H9A         9.4670  -10.6950    9.7860 H         1 TMC1        0.0000
     81 H9B        10.3070   -9.1480    9.4510 H         1 TMC1        0.0000
     82 CA10       11.4120  -10.9310    8.8610 C.3       1 TMC1        0.0000
     83 H10A       11.9770  -10.5090    8.0000 H         1 TMC1        0.0000
     84 H10B       11.1530  -11.9840    8.6060 H         1 TMC1        0.0000
     85 CA11       12.3170  -10.9090   10.1020 C.3       1 TMC1        0.0000
     86 H11A       11.6900  -10.9400   11.0210 H         1 TMC1        0.0000
     87 H11B       12.8860   -9.9530   10.1180 H         1 TMC1        0.0000
     88 CA12       13.2870  -12.0990   10.1330 C.3       1 TMC1        0.0000
     89 H12A       13.8190  -12.1760    9.1590 H         1 TMC1        0.0000
     90 H12B       12.6920  -13.0320   10.2630 H         1 TMC1        0.0000
     91 CA13       14.3270  -12.0070   11.2570 C.3       1 TMC1        0.0000
     92 H13A       13.8060  -11.7870   12.2160 H         1 TMC1        0.0000
     93 H13B       15.0130  -11.1560   11.0440 H         1 TMC1        0.0000
     94 CA14       15.1460  -13.2900   11.4160 C.3       1 TMC1        0.0000
     95 H14A       15.6320  -13.5650   10.4550 H         1 TMC1        0.0000
     96 H14B       14.4860  -14.1290   11.7270 H         1 TMC1        0.0000
     97 H14C       15.9360  -13.1570   12.1870 H         1 TMC1        0.0000
     98 CB3         6.3660   -4.6320    4.9040 C.3       1 TMC1        0.0000
     99 H3D         6.7090   -5.5740    4.4190 H         1 TMC1        0.0000
    100 H3E         5.3970   -4.8470    5.4080 H         1 TMC1        0.0000
    101 CB4         7.3950   -4.1910    5.9530 C.3       1 TMC1        0.0000
    102 H4D         7.0310   -3.2620    6.4470 H         1 TMC1        0.0000
    103 H4E         8.3460   -3.9460    5.4280 H         1 TMC1        0.0000
    104 CB5         7.6980   -5.2430    7.0270 C.3       1 TMC1        0.0000
    105 H5D         8.0030   -6.1920    6.5310 H         1 TMC1        0.0000
    106 H5E         6.7800   -5.4510    7.6180 H         1 TMC1        0.0000
    107 CB6         8.8200   -4.7690    7.9620 C.3       1 TMC1        0.0000
    108 H6D         8.4800   -3.8640    8.5130 H         1 TMC1        0.0000
    109 H6E         9.6920   -4.4680    7.3370 H         1 TMC1        0.0000
    110 CB7         9.2900   -5.8310    8.9650 C.3       1 TMC1        0.0000
    111 H7D         9.5990   -6.7430    8.4070 H         1 TMC1        0.0000
    112 H7E         8.4530   -6.1080    9.6430 H         1 TMC1        0.0000
    113 CB8        10.4850   -5.3400    9.7920 C.3       1 TMC1        0.0000
    114 H8D        10.2030   -4.4060   10.3280 H         1 TMC1        0.0000
    115 H8E        11.3110   -5.0880    9.0880 H         1 TMC1        0.0000
    116 CB9        10.9960   -6.3740   10.8050 C.3       1 TMC1        0.0000
    117 H9D        11.1550   -7.3470   10.2910 H         1 TMC1        0.0000
    118 H9E        10.2260   -6.5280   11.5930 H         1 TMC1        0.0000
    119 CB10       12.3240   -5.9450   11.4450 C.3       1 TMC1        0.0000
    120 H10D       12.1680   -4.9860   11.9850 H         1 TMC1        0.0000
    121 H10E       13.0640   -5.7570   10.6350 H         1 TMC1        0.0000
    122 CB11       12.9170   -6.9750   12.4180 C.3       1 TMC1        0.0000
    123 H11D       13.9050   -6.5960   12.7660 H         1 TMC1        0.0000
    124 H11E       13.0930   -7.9360   11.8860 H         1 TMC1        0.0000
    125 CB12       12.0380   -7.2320   13.6490 C.3       1 TMC1        0.0000
    126 H12D       11.1290   -7.7980   13.3470 H         1 TMC1        0.0000
    127 H12E       11.7030   -6.2520   14.0570 H         1 TMC1        0.0000
    128 CB13       12.7800   -7.9980   14.7510 C.3       1 TMC1        0.0000
    129 H13D       13.6910   -7.4230   15.0360 H         1 TMC1        0.0000
    130 H13E       13.1190   -8.9810   14.3510 H         1 TMC1        0.0000
    131 CB14       11.9340   -8.2280   16.0040 C.3       1 TMC1        0.0000
    132 H14D       11.0420   -8.8450   15.7590 H         1 TMC1        0.0000
    133 H14E       11.5880   -7.2580   16.4210 H         1 TMC1        0.0000
    134 H14F       12.5320   -8.7520   16.7810 H         1 TMC1        0.0000
    135 CC3         5.2200    0.4020    8.4700 C.3       1 TMC1        0.0000
    136 H3R         4.3650   -0.1150    8.9630 H         1 TMC1        0.0000
    137 H3S         5.1220    1.4910    8.6870 H         1 TMC1        0.0000
    138 CC4         6.5280   -0.1000    9.0980 C.3       1 TMC1        0.0000
    139 H4R         7.3810    0.4470    8.6390 H         1 TMC1        0.0000
    140 H4S         6.6540   -1.1800    8.8630 H         1 TMC1        0.0000
    141 CC5         6.5590    0.0890   10.6240 C.3       1 TMC1        0.0000
    142 H5R         5.7270   -0.5050   11.0670 H         1 TMC1        0.0000
    143 H5S         6.3810    1.1570   10.8800 H         1 TMC1        0.0000
    144 CC6         7.8760   -0.3710   11.2680 C.3       1 TMC1        0.0000
    145 H6R         8.1430   -1.3660   10.8530 H         1 TMC1        0.0000
    146 H6S         7.7120   -0.4970   12.3630 H         1 TMC1        0.0000
    147 CC7         9.0330    0.6230   11.0670 C.3       1 TMC1        0.0000
    148 H7R         8.7720    1.5770   11.5810 H         1 TMC1        0.0000
    149 H7S         9.1490    0.8500    9.9850 H         1 TMC1        0.0000
    150 CC8        10.3810    0.1210   11.6120 C.3       1 TMC1        0.0000
    151 H8R        10.2610   -0.1660   12.6800 H         1 TMC1        0.0000
    152 H8S        11.1120    0.9610   11.5690 H         1 TMC1        0.0000
    153 CC9        10.9520   -1.0590   10.8100 C.3       1 TMC1        0.0000
    154 H9R        10.9980   -0.7600    9.7380 H         1 TMC1        0.0000
    155 H9S        10.2640   -1.9290   10.8870 H         1 TMC1        0.0000
    156 CC10       12.3570   -1.5020   11.2510 C.3       1 TMC1        0.0000
    157 H10R       13.0590   -0.6410   11.1890 H         1 TMC1        0.0000
    158 H10S       12.7130   -2.2790   10.5360 H         1 TMC1        0.0000
    159 CC11       12.4020   -2.0970   12.6650 C.3       1 TMC1        0.0000
    160 H11R       11.6010   -2.8640   12.7560 H         1 TMC1        0.0000
    161 H11S       12.1950   -1.3020   13.4150 H         1 TMC1        0.0000
    162 CC12       13.7540   -2.7540   12.9810 C.3       1 TMC1        0.0000
    163 H12R       14.5570   -1.9840   12.9440 H         1 TMC1        0.0000
    164 H12S       13.9800   -3.5100   12.1970 H         1 TMC1        0.0000
    165 CC13       13.7760   -3.4450   14.3500 C.3       1 TMC1        0.0000
    166 H13R       12.9390   -4.1780   14.3990 H         1 TMC1        0.0000
    167 H13S       13.5960   -2.6840   15.1430 H         1 TMC1        0.0000
    168 CC14       15.0900   -4.1750   14.6380 C.3       1 TMC1        0.0000
    169 H14R       15.9450   -3.4660   14.5980 H         1 TMC1        0.0000
    170 H14S       15.2640   -4.9800   13.8920 H         1 TMC1        0.0000
    171 H14T       15.0560   -4.6350   15.6490 H         1 TMC1        0.0000
    172 CD3         1.5390   -3.6710    7.3420 C.3       1 TMC1        0.0000
    173 H3X         1.4130   -4.6970    7.7530 H         1 TMC1        0.0000
    174 H3Y         1.1870   -2.9520    8.1150 H         1 TMC1        0.0000
    175 CD4         3.0330   -3.4290    7.0640 C.3       1 TMC1        0.0000
    176 H4X         3.1610   -2.3930    6.6740 H         1 TMC1        0.0000
    177 H4Y         3.3750   -4.1210    6.2640 H         1 TMC1        0.0000
    178 CD5         3.9300   -3.5900    8.3040 C.3       1 TMC1        0.0000
    179 H5X         3.5300   -2.9640    9.1320 H         1 TMC1        0.0000
    180 H5Y         4.9480   -3.2110    8.0560 H         1 TMC1        0.0000
    181 CD6         4.0570   -5.0470    8.7730 C.3       1 TMC1        0.0000
    182 H6X         4.4540   -5.6530    7.9280 H         1 TMC1        0.0000
    183 H6Y         3.0530   -5.4490    9.0300 H         1 TMC1        0.0000
    184 CD7         4.9780   -5.2200    9.9920 C.3       1 TMC1        0.0000
    185 H7X         4.5260   -4.7020   10.8680 H         1 TMC1        0.0000
    186 H7Y         5.9620   -4.7430    9.7870 H         1 TMC1        0.0000
    187 CD8         5.2000   -6.7010   10.3320 C.3       1 TMC1        0.0000
    188 H8X         5.7000   -7.1940    9.4680 H         1 TMC1        0.0000
    189 H8Y         4.2100   -7.1910   10.4710 H         1 TMC1        0.0000
    190 CD9         6.0480   -6.9230   11.5940 C.3       1 TMC1        0.0000
    191 H9X         5.5310   -6.4590   12.4630 H         1 TMC1        0.0000
    192 H9Y         7.0300   -6.4140   11.4740 H         1 TMC1        0.0000
    193 CD10        6.2880   -8.4140   11.8740 C.3       1 TMC1        0.0000
    194 H10X        6.7740   -8.8680   10.9800 H         1 TMC1        0.0000
    195 H10Y        5.3080   -8.9220   12.0160 H         1 TMC1        0.0000
    196 CD11        7.1730   -8.6890   13.1020 C.3       1 TMC1        0.0000
    197 H11X        8.1550   -8.1820   12.9750 H         1 TMC1        0.0000
    198 H11Y        7.3650   -9.7860   13.1470 H         1 TMC1        0.0000
    199 CD12        6.5400   -8.2540   14.4330 C.3       1 TMC1        0.0000
    200 H12X        5.5030   -8.6550   14.4940 H         1 TMC1        0.0000
    201 H12Y        6.4750   -7.1440   14.4710 H         1 TMC1        0.0000
    202 CD13        7.3260   -8.7530   15.6530 C.3       1 TMC1        0.0000
    203 H13X        8.3700   -8.3710   15.5880 H         1 TMC1        0.0000
    204 H13Y        7.3730   -9.8660   15.6130 H         1 TMC1        0.0000
    205 CD14        6.7120   -8.3290   16.9910 C.3       1 TMC1        0.0000
    206 H14X        5.6670   -8.6960   17.0750 H         1 TMC1        0.0000
    207 H14Y        6.7020   -7.2210   17.0810 H         1 TMC1        0.0000
    208 H14Z        7.2980   -8.7450   17.8390 H         1 TMC1        0.0000
@<TRIPOS>BOND
     1   17   16 1 
     2    3    1 1 
     3   14   15 1 
     4   14   12 1 
     5    7    1 1 
     6    7    4 1 
     7   16   18 1 
     8   16   12 1 
     9   16   22 1 
    10    1   12 1 
    11    1    2 1 
    12   25   24 1 
    13   21   19 2 
    14   12   13 1 
    15   26   24 1 
    16   24   23 1 
    17   24   27 1 
    18   22   19 1 
    19    6    4 2 
    20   28   27 1 
    21    4    5 1 
    22    4    8 1 
    23   19   23 1 
    24   19   20 1 
    25   40   39 2 
    26   27   35 1 
    27   27   29 1 
    28   37   35 1 
    29    8    9 1 
    30   35   36 1 
    31   35   38 1 
    32   29   30 1 
    33   39   38 1 
    34   39   41 1 
    35   31   30 2 
    36   53   52 1 
    37   30   32 1 
    38   43   41 1 
    39   54   52 1 
    40    9   10 1 
    41    9   11 1 
    42    9   44 1 
    43   33   32 1 
    44   41   42 1 
    45   41   98 1 
    46   52   55 1 
    47   52   44 1 
    48   32   34 1 
    49   32   61 1 
    50   99   98 1 
    51   55   56 1 
    52   44   46 1 
    53   44   45 1 
    54   65   64 1 
    55   98  100 1 
    56   98  101 1 
    57   66   64 1 
    58   46   47 1 
    59   59   58 1 
    60   64   61 1 
    61   64   67 1 
    62  103  101 1 
    63   56   57 2 
    64   56   58 1 
    65   61   63 1 
    66   61   62 1 
    67   71   70 1 
    68  101  102 1 
    69  101  104 1 
    70   58   60 1 
    71   58  172 1 
    72   72   70 1 
    73  177  175 1 
    74   47   48 2 
    75   47   49 1 
    76   50   49 1 
    77  105  104 1 
    78   70   67 1 
    79   70   73 1 
    80  176  175 1 
    81   51   49 1 
    82   67   69 1 
    83   67   68 1 
    84   49  135 1 
    85   77   76 1 
    86  104  106 1 
    87  104  107 1 
    88  175  172 1 
    89  175  178 1 
    90   78   76 1 
    91  109  107 1 
    92  172  173 1 
    93  172  174 1 
    94   76   73 1 
    95   76   79 1 
    96   73   75 1 
    97   73   74 1 
    98  182  181 1 
    99  107  108 1 
   100  107  110 1 
   101   83   82 1 
   102  180  178 1 
   103  178  181 1 
   104  178  179 1 
   105  111  110 1 
   106  135  137 1 
   107  135  136 1 
   108  135  138 1 
   109   84   82 1 
   110  139  138 1 
   111  181  183 1 
   112  181  184 1 
   113   82   79 1 
   114   82   85 1 
   115  140  138 1 
   116  110  112 1 
   117  110  113 1 
   118   79   81 1 
   119   79   80 1 
   120  115  113 1 
   121  138  141 1 
   122   89   88 1 
   123  188  187 1 
   124  154  153 1 
   125  186  184 1 
   126  113  114 1 
   127  113  116 1 
   128  149  147 1 
   129  184  187 1 
   130  184  185 1 
   131   85   87 1 
   132   85   88 1 
   133   85   86 1 
   134   88   90 1 
   135   88   91 1 
   136  117  116 1 
   137  187  189 1 
   138  187  190 1 
   139   95   94 1 
   140  158  156 1 
   141  141  143 1 
   142  141  142 1 
   143  141  144 1 
   144  121  119 1 
   145  116  119 1 
   146  116  118 1 
   147  153  155 1 
   148  153  156 1 
   149  153  150 1 
   150  145  144 1 
   151  194  193 1 
   152   93   91 1 
   153  147  144 1 
   154  147  148 1 
   155  147  150 1 
   156  157  156 1 
   157  156  159 1 
   158   91   94 1 
   159   91   92 1 
   160  144  146 1 
   161   94   96 1 
   162   94   97 1 
   163  119  120 1 
   164  119  122 1 
   165  192  190 1 
   166  152  150 1 
   167  190  193 1 
   168  190  191 1 
   169  150  151 1 
   170  193  195 1 
   171  193  196 1 
   172  124  122 1 
   173  164  162 1 
   174  122  123 1 
   175  122  125 1 
   176  159  160 1 
   177  159  162 1 
   178  159  161 1 
   179  163  162 1 
   180  197  196 1 
   181  162  165 1 
   182  196  198 1 
   183  196  199 1 
   184  126  125 1 
   185  125  127 1 
   186  125  128 1 
   187  170  168 1 
   188  165  166 1 
   189  165  168 1 
   190  165  167 1 
   191  130  128 1 
   192  199  201 1 
   193  199  200 1 
   194  199  202 1 
   195  169  168 1 
   196  168  171 1 
   197  128  129 1 
   198  128  131 1 
   199  203  202 1 
   200  204  202 1 
   201  202  205 1 
   202  132  131 1 
   203  131  133 1 
   204  131  134 1 
   205  205  206 1 
   206  205  207 1 
   207  205  208 1 
