@<TRIPOS>MOLECULE
C:\Users\Praveer\PycharmProjects\pdb_to_mol2_converter\data\pdb\tmfd.pdb
   20    20     0     0     0
SMALL
GASTEIGER

@<TRIPOS>ATOM
      1 O4'        -0.1080    1.3050   -0.8210 O.3       1 TMF1        0.0000
      2 C1'        -0.2980    0.0450   -0.1720 C.3       1 TMF1        0.0000
      3 H11'       -1.1100   -0.5020   -0.6680 H         1 TMF1        0.0000
      4 H12'       -0.5720    0.2420    0.8740 H         1 TMF1        0.0000
      5 C4'         1.1820    1.8030   -0.4230 C.3       1 TMF1        0.0000
      6 H42'        0.9990    2.4880    0.4200 H         1 TMF1        0.0000
      7 C2'         1.0610   -0.5990   -0.2840 C.3       1 TMF1        0.0000
      8 H21'        1.2320   -0.8930   -1.3160 H         1 TMF1        0.0000
      9 F2'         1.1910   -1.7190    0.4940 F         1 TMF1        0.0000
     10 C3'         1.9960    0.5720    0.0400 C.3       1 TMF1        0.0000
     11 H31'        2.9330    0.4610   -0.5350 H         1 TMF1        0.0000
     12 O3'         2.2650    0.6120    1.4440 O.3       1 TMF1        0.0000
     13 P           3.3940    1.6620    1.9900 P.3       1 TMF1        0.0000
     14 O1P         2.6460    2.9660    2.1910 O.3       1 TMF1        0.0000
     15 O2P         4.4480    1.7260    0.8920 O.2       1 TMF1        0.0000
     16 O3P         3.9000    1.0380    3.2840 O.3       1 TMF1        0.0000
     17 C5'         1.8130    2.5810   -1.5770 C.3       1 TMF1        0.0000
     18 H51'        1.1280    3.3680   -1.9380 H         1 TMF1        0.0000
     19 H52'        2.0680    1.8950   -2.4080 H         1 TMF1        0.0000
     20 H53'        2.7540    3.0560   -1.2060 H         1 TMF1        0.0000
@<TRIPOS>BOND
     1   19   17 1 
     2   18   17 1 
     3   17   20 1 
     4   17    5 1 
     5    8    7 1 
     6    1    5 1 
     7    1    2 1 
     8    3    2 1 
     9   11   10 1 
    10    5   10 1 
    11    5    6 1 
    12    7    2 1 
    13    7   10 1 
    14    7    9 1 
    15    2    4 1 
    16   10   12 1 
    17   15   13 2 
    18   12   13 1 
    19   13   14 1 
    20   13   16 1 
