@<TRIPOS>MOLECULE
C:\Users\Praveer\PycharmProjects\pdb_to_mol2_converter\data\pdb\tmfu.pdb
   20    20     0     0     0
SMALL
GASTEIGER

@<TRIPOS>ATOM
      1 O4'        -0.1900    1.2640   -0.7840 O.3       1 TMF1        0.0000
      2 C1'        -0.0070    0.1020    0.0360 C.3       1 TMF1        0.0000
      3 H11'       -0.6630   -0.7030   -0.3160 H         1 TMF1        0.0000
      4 H12'       -0.2960    0.3720    1.0640 H         1 TMF1        0.0000
      5 C4'         1.0230    2.0290   -0.7510 C.3       1 TMF1        0.0000
      6 H42'        0.8110    2.9540   -0.1870 H         1 TMF1        0.0000
      7 C2'         1.4740   -0.2160   -0.0390 C.3       1 TMF1        0.0000
      8 H22'        1.8120   -0.8510    0.7680 H         1 TMF1        0.0000
      9 F2'         1.7630   -0.8460   -1.2320 F         1 TMF1        0.0000
     10 C3'         2.0670    1.1910    0.0060 C.3       1 TMF1        0.0000
     11 H31'        3.0550    1.2440   -0.4790 H         1 TMF1        0.0000
     12 O3'         2.1450    1.6600    1.3520 O.3       1 TMF1        0.0000
     13 P           3.2800    1.1120    2.3710 P.3       1 TMF1        0.0000
     14 O1P         3.3120    2.1460    3.4820 O.3       1 TMF1        0.0000
     15 O2P         4.5510    1.0600    1.5390 O.2       1 TMF1        0.0000
     16 O3P         2.7720   -0.2490    2.8150 O.3       1 TMF1        0.0000
     17 C5'         1.4200    2.3950   -2.1810 C.3       1 TMF1        0.0000
     18 H51'        0.6090    2.9760   -2.6660 H         1 TMF1        0.0000
     19 H52'        1.5960    1.4670   -2.7650 H         1 TMF1        0.0000
     20 H53'        2.3540    2.9960   -2.1720 H         1 TMF1        0.0000
@<TRIPOS>BOND
     1   19   17 1 
     2   18   17 1 
     3   17   20 1 
     4   17    5 1 
     5    9    7 1 
     6    1    5 1 
     7    1    2 1 
     8    5    6 1 
     9    5   10 1 
    10   11   10 1 
    11    3    2 1 
    12    7   10 1 
    13    7    2 1 
    14    7    8 1 
    15   10   12 1 
    16    2    4 1 
    17   12   13 1 
    18   15   13 2 
    19   13   16 1 
    20   13   14 1 
