@<TRIPOS>MOLECULE
C:\Users\Praveer\PycharmProjects\pdb_to_mol2_converter\data\pdb\tmor.pdb
   16    16     0     0     0
SMALL
GASTEIGER

@<TRIPOS>ATOM
      1 S1          0.0350    0.0310   -0.4300 S.3       1 TMO1        0.0000
      2 C2          1.7980   -0.0360    0.0530 C.3       1 TMO1        0.0000
      3 H21         2.3460   -0.6960   -0.6580 H         1 TMO1        0.0000
      4 H22         1.9130   -0.4900    1.0620 H         1 TMO1        0.0000
      5 C3          2.4320    1.3580    0.0230 C.3       1 TMO1        0.0000
      6 H31         2.2520    1.8800   -0.9340 H         1 TMO1        0.0000
      7 H32         3.5190    1.3300    0.2140 H         1 TMO1        0.0000
      8 N4          1.8760    2.2780    1.0910 N.4       1 TMO1        0.0000
      9 H41         2.0590    3.2330    0.8220 H         1 TMO1        0.0000
     10 H42         2.3840    2.1330    1.9500 H         1 TMO1        0.0000
     11 C5          0.3950    2.1150    1.3720 C.3       1 TMO1        0.0000
     12 H51         0.0780    3.0910    1.7790 H         1 TMO1        0.0000
     13 H52         0.3320    1.3570    2.1710 H         1 TMO1        0.0000
     14 C6         -0.4060    1.7170    0.1270 C.3       1 TMO1        0.0000
     15 H61        -1.4910    1.7460    0.3730 H         1 TMO1        0.0000
     16 H62        -0.2440    2.4580   -0.6880 H         1 TMO1        0.0000
@<TRIPOS>BOND
     1    6    5 1 
     2   16   14 1 
     3    3    2 1 
     4    1    2 1 
     5    1   14 1 
     6    5    2 1 
     7    5    7 1 
     8    5    8 1 
     9    2    4 1 
    10   14   15 1 
    11   14   11 1 
    12    9    8 1 
    13    8   11 1 
    14    8   10 1 
    15   11   12 1 
    16   11   13 1 
