@<TRIPOS>MOLECULE
C:\Users\Praveer\PycharmProjects\pdb_to_mol2_converter\data\pdb\tmpm.pdb
   24    24     0     0     0
SMALL
GASTEIGER

@<TRIPOS>ATOM
      1 O4'         1.3460    0.5110   -0.7760 O.3       1 TMP1        0.0000
      2 C1'         2.0670    1.4690   -0.0040 C.3       1 TMP1        0.0000
      3 H11'        2.8010    1.9780   -0.6410 H         1 TMP1        0.0000
      4 H12'        2.5970    0.9250    0.7940 H         1 TMP1        0.0000
      5 C4'         0.1220    0.2120   -0.0940 C.3       1 TMP1        0.0000
      6 H42'        0.2890   -0.7260    0.4610 H         1 TMP1        0.0000
      7 C2'         0.9680    2.3640    0.5530 C.3       1 TMP1        0.0000
      8 H21'        0.6090    3.0540   -0.2250 H         1 TMP1        0.0000
      9 H22'        1.2990    2.9790    1.4000 H         1 TMP1        0.0000
     10 C3'        -0.1240    1.3600    0.9060 C.3       1 TMP1        0.0000
     11 H31'       -1.1360    1.7780    0.7580 H         1 TMP1        0.0000
     12 O3'         0.0940    0.8850    2.2320 O.3       1 TMP1        0.0000
     13 P          -0.5670    1.7080    3.4640 P.3       1 TMP1        0.0000
     14 O1P         0.2900    2.9250    3.7210 O.3       1 TMP1        0.0000
     15 O2P        -2.0390    1.8660    3.1720 O.2       1 TMP1        0.0000
     16 O3P        -0.4180    0.7060    4.7480 O.3       1 TMP1        0.0000
     17 C3T        -0.4920    1.2800    6.0510 C.3       1 TMP1        0.0000
     18 H3T1       -1.4810    1.7650    6.2200 H         1 TMP1        0.0000
     19 H3T2        0.3150    2.0340    6.2030 H         1 TMP1        0.0000
     20 H3T3       -0.3640    0.4830    6.8150 H         1 TMP1        0.0000
     21 C5'        -0.9960    0.0010   -1.1140 C.3       1 TMP1        0.0000
     22 H51'       -0.7660   -0.8750   -1.7550 H         1 TMP1        0.0000
     23 H52'       -1.0930    0.9000   -1.7580 H         1 TMP1        0.0000
     24 H53'       -1.9590   -0.1720   -0.5900 H         1 TMP1        0.0000
@<TRIPOS>BOND
     1   23   21 1 
     2   22   21 1 
     3   21   24 1 
     4   21    5 1 
     5    1    5 1 
     6    1    2 1 
     7    3    2 1 
     8    8    7 1 
     9    5    6 1 
    10    5   10 1 
    11    2    7 1 
    12    2    4 1 
    13    7   10 1 
    14    7    9 1 
    15   11   10 1 
    16   10   12 1 
    17   12   13 1 
    18   15   13 2 
    19   13   14 1 
    20   13   16 1 
    21   16   17 1 
    22   17   19 1 
    23   17   18 1 
    24   17   20 1 
