@<TRIPOS>MOLECULE
C:\Users\Praveer\PycharmProjects\pdb_to_mol2_converter\data\pdb\tocl2.pdb
  248   247     0     0     0
SMALL
GASTEIGER

@<TRIPOS>ATOM
      1 C3          1.4980    0.1180    0.1730 C.3       1 TOC1        0.0000
      2 HG31        1.6870   -0.4240    1.1310 H         1 TOC1        0.0000
      3 HG32        1.9530   -0.4660   -0.6600 H         1 TOC1        0.0000
      4 P3          3.5690    1.6340    0.6280 P.3       1 TOC1        0.0000
      5 OP33        3.8090    0.9730    1.9300 O.3       1 TOC1        0.0000
      6 OP34        3.9380    3.0580    0.4950 O.2       1 TOC1        0.0000
      7 OP31        2.0450    1.4470    0.2050 O.3       1 TOC1        0.0000
      8 OP32        4.3270    0.8220   -0.5100 O.3       1 TOC1        0.0000
      9 C31         4.1520    1.2650   -1.8580 C.3       1 TOC1        0.0000
     10 H31J        4.4870    2.3220   -1.9760 H         1 TOC1        0.0000
     11 H31K        3.0770    1.2190   -2.1530 H         1 TOC1        0.0000
     12 C2         -0.0380    0.1460   -0.0520 C.3       1 TOC1        0.0000
     13 HG22       -0.5080    0.6310    0.8340 H         1 TOC1        0.0000
     14 OG12       -0.2640    0.9490   -1.2010 O.3       1 TOC1        0.0000
     15 HO12        0.4550    1.5870   -1.1070 H         1 TOC1        0.0000
     16 C1         -0.6400   -1.2800   -0.2340 C.3       1 TOC1        0.0000
     17 HG11       -0.1180   -1.9660    0.4690 H         1 TOC1        0.0000
     18 HG12       -0.3870   -1.6270   -1.2600 H         1 TOC1        0.0000
     19 P1         -2.7490   -1.3570    1.3650 P.3       1 TOC1        0.0000
     20 OP13       -2.8080    0.0150    1.9120 O.3       1 TOC1        0.0000
     21 OP14       -4.0280   -2.0990    1.2720 O.2       1 TOC1        0.0000
     22 OP11       -2.0630   -1.3420   -0.0670 O.3       1 TOC1        0.0000
     23 OP12       -1.7180   -2.1950    2.2380 O.3       1 TOC1        0.0000
     24 C11        -1.9300   -3.5620    2.5850 C.3       1 TOC1        0.0000
     25 H11J       -2.9990   -3.7680    2.8290 H         1 TOC1        0.0000
     26 H11K       -1.3370   -3.7660    3.5030 H         1 TOC1        0.0000
     27 C12        -1.4500   -4.5360    1.4740 C.3       1 TOC1        0.0000
     28 H12J       -0.4440   -4.1780    1.1430 H         1 TOC1        0.0000
     29 O12        -2.4260   -4.5210    0.4200 O.3       1 TOC1        0.0000
     30 CA1        -1.9530   -4.5440   -0.8080 C.2       1 TOC1        0.0000
     31 OA1        -0.7880   -4.7110   -1.1280 O.2       1 TOC1        0.0000
     32 CA2        -3.1240   -4.4100   -1.7860 C.3       1 TOC1        0.0000
     33 H2A        -3.5830   -3.4110   -1.6210 H         1 TOC1        0.0000
     34 H2B        -3.8680   -5.1880   -1.5230 H         1 TOC1        0.0000
     35 C13        -1.3080   -5.9880    2.0120 C.3       1 TOC1        0.0000
     36 H13J       -2.3150   -6.2950    2.3740 H         1 TOC1        0.0000
     37 H13K       -0.6260   -5.9980    2.8930 H         1 TOC1        0.0000
     38 O13        -0.8910   -6.9120    0.9820 O.3       1 TOC1        0.0000
     39 CB1         0.4160   -6.9050    0.7260 C.2       1 TOC1        0.0000
     40 OB1         1.2690   -6.3660    1.4070 O.2       1 TOC1        0.0000
     41 CB2         0.6670   -7.6930   -0.5590 C.3       1 TOC1        0.0000
     42 H2D         0.0320   -7.2350   -1.3470 H         1 TOC1        0.0000
     43 H2E         0.3340   -8.7370   -0.3990 H         1 TOC1        0.0000
     44 C32         4.9690    0.3840   -2.8460 C.3       1 TOC1        0.0000
     45 H32J        4.6960    0.7000   -3.8810 H         1 TOC1        0.0000
     46 O32         4.7110   -1.0210   -2.6680 O.3       1 TOC1        0.0000
     47 CC1         3.5040   -1.4190   -3.0320 C.2       1 TOC1        0.0000
     48 OC1         2.6770   -0.7340   -3.6050 O.2       1 TOC1        0.0000
     49 CC2         3.4290   -2.9350   -2.7820 C.3       1 TOC1        0.0000
     50 H2R         4.0070   -3.1520   -1.8570 H         1 TOC1        0.0000
     51 H2S         3.9470   -3.4280   -3.6290 H         1 TOC1        0.0000
     52 C33         6.4980    0.6040   -2.7070 C.3       1 TOC1        0.0000
     53 H33J        6.8190    0.2600   -1.6950 H         1 TOC1        0.0000
     54 H33K        6.7000    1.6970   -2.7600 H         1 TOC1        0.0000
     55 O33         7.1770   -0.0570   -3.8000 O.3       1 TOC1        0.0000
     56 CD1         7.6440   -1.2760   -3.5490 C.2       1 TOC1        0.0000
     57 OD1         7.8720   -1.7510   -2.4490 O.2       1 TOC1        0.0000
     58 CD2         7.7750   -2.0460   -4.8640 C.3       1 TOC1        0.0000
     59 H2X         6.8880   -1.7840   -5.4770 H         1 TOC1        0.0000
     60 H2Y         7.7190   -3.1290   -4.6270 H         1 TOC1        0.0000
     61 CA3        -2.6840   -4.5690   -3.2590 C.3       1 TOC1        0.0000
     62 H3A        -2.0580   -5.4840   -3.3610 H         1 TOC1        0.0000
     63 H3B        -2.0570   -3.6930   -3.5420 H         1 TOC1        0.0000
     64 CA4        -3.8670   -4.6650   -4.2350 C.3       1 TOC1        0.0000
     65 H4A        -4.5410   -3.7960   -4.0550 H         1 TOC1        0.0000
     66 H4B        -4.4500   -5.5870   -4.0220 H         1 TOC1        0.0000
     67 CA5        -3.4350   -4.6540   -5.7130 C.3       1 TOC1        0.0000
     68 H5A        -2.8560   -3.7210   -5.8970 H         1 TOC1        0.0000
     69 H5B        -4.3480   -4.6240   -6.3510 H         1 TOC1        0.0000
     70 CA6        -2.5900   -5.8740   -6.1160 C.3       1 TOC1        0.0000
     71 H6A        -3.1720   -6.7930   -5.8790 H         1 TOC1        0.0000
     72 H6B        -1.6610   -5.9020   -5.5050 H         1 TOC1        0.0000
     73 CA7        -2.2000   -5.9100   -7.6050 C.3       1 TOC1        0.0000
     74 H7A        -3.1260   -5.9190   -8.2240 H         1 TOC1        0.0000
     75 H7B        -1.6540   -6.8670   -7.7840 H         1 TOC1        0.0000
     76 CA8        -1.3110   -4.7290   -8.0390 C.3       1 TOC1        0.0000
     77 H8A        -0.4710   -4.6360   -7.3200 H         1 TOC1        0.0000
     78 H8B        -1.8910   -3.7840   -7.9520 H         1 TOC1        0.0000
     79 CA9        -0.7560   -4.9220   -9.4320 C.2       1 TOC1        0.0000
     80 H9A         0.1660   -5.5260   -9.4800 H         1 TOC1        0.0000
     81 CA10       -1.2560   -4.4160  -10.5710 C.2       1 TOC1        0.0000
     82 H10A       -0.7570   -4.6580  -11.5210 H         1 TOC1        0.0000
     83 CA11       -2.4970   -3.5680  -10.7270 C.3       1 TOC1        0.0000
     84 H11A       -2.2260   -2.5880  -11.1800 H         1 TOC1        0.0000
     85 H11B       -2.9720   -3.3550   -9.7450 H         1 TOC1        0.0000
     86 CA12       -3.5540   -4.2560  -11.6140 C.3       1 TOC1        0.0000
     87 H12A       -3.7310   -5.2910  -11.2360 H         1 TOC1        0.0000
     88 H12B       -3.1750   -4.3390  -12.6560 H         1 TOC1        0.0000
     89 CA13       -4.9140   -3.5330  -11.6170 C.3       1 TOC1        0.0000
     90 H13A       -5.2850   -3.4910  -10.5670 H         1 TOC1        0.0000
     91 H13B       -5.6410   -4.1370  -12.2030 H         1 TOC1        0.0000
     92 CA14       -4.9010   -2.1020  -12.1810 C.3       1 TOC1        0.0000
     93 H14A       -4.1580   -1.4840  -11.6320 H         1 TOC1        0.0000
     94 H14B       -5.9010   -1.6450  -12.0020 H         1 TOC1        0.0000
     95 CA15       -4.6140   -2.0240  -13.6870 C.3       1 TOC1        0.0000
     96 H15A       -5.4010   -2.5870  -14.2360 H         1 TOC1        0.0000
     97 H15B       -3.6350   -2.5010  -13.9120 H         1 TOC1        0.0000
     98 CA16       -4.5860   -0.5760  -14.1970 C.3       1 TOC1        0.0000
     99 H16A       -3.7570   -0.0280  -13.6930 H         1 TOC1        0.0000
    100 H16B       -5.5390   -0.0710  -13.9230 H         1 TOC1        0.0000
    101 CA17       -4.3960   -0.4890  -15.7160 C.3       1 TOC1        0.0000
    102 H17A       -5.2460   -1.0110  -16.2130 H         1 TOC1        0.0000
    103 H17B       -3.4630   -1.0320  -15.9910 H         1 TOC1        0.0000
    104 CA18       -4.3130    0.9480  -16.2350 C.3       1 TOC1        0.0000
    105 H18A       -3.4480    1.4770  -15.7780 H         1 TOC1        0.0000
    106 H18B       -5.2380    1.5090  -15.9830 H         1 TOC1        0.0000
    107 H18C       -4.1860    0.9550  -17.3390 H         1 TOC1        0.0000
    108 CB3         2.1420   -7.6450   -1.0170 C.3       1 TOC1        0.0000
    109 H3D         2.7730   -8.2610   -0.3390 H         1 TOC1        0.0000
    110 H3E         2.5090   -6.5930   -0.9510 H         1 TOC1        0.0000
    111 CB4         2.3220   -8.1090   -2.4710 C.3       1 TOC1        0.0000
    112 H4D         3.3840   -7.9460   -2.7650 H         1 TOC1        0.0000
    113 H4E         1.6880   -7.4750   -3.1320 H         1 TOC1        0.0000
    114 CB5         1.9620   -9.5870   -2.6820 C.3       1 TOC1        0.0000
    115 H5D         0.9310   -9.7760   -2.3070 H         1 TOC1        0.0000
    116 H5E         2.6590  -10.2120   -2.0780 H         1 TOC1        0.0000
    117 CB6         2.0080  -10.0480   -4.1490 C.3       1 TOC1        0.0000
    118 H6D         1.1760   -9.5650   -4.7070 H         1 TOC1        0.0000
    119 H6E         1.8230  -11.1440   -4.1670 H         1 TOC1        0.0000
    120 CB7         3.3260   -9.7400   -4.8770 C.3       1 TOC1        0.0000
    121 H7D         4.1900  -10.0870   -4.2660 H         1 TOC1        0.0000
    122 H7E         3.4160   -8.6340   -4.9770 H         1 TOC1        0.0000
    123 CB8         3.3980  -10.3480   -6.2930 C.3       1 TOC1        0.0000
    124 H8D         4.2290   -9.8370   -6.8270 H         1 TOC1        0.0000
    125 H8E         2.4600  -10.0980   -6.8370 H         1 TOC1        0.0000
    126 CB9         3.6090  -11.8450   -6.2630 C.2       1 TOC1        0.0000
    127 H9D         2.8130  -12.4100   -5.7540 H         1 TOC1        0.0000
    128 CB10        4.6600  -12.5170   -6.7580 C.2       1 TOC1        0.0000
    129 H10D        4.6930  -13.6130   -6.6380 H         1 TOC1        0.0000
    130 CB11        5.8380  -11.9270   -7.4970 C.3       1 TOC1        0.0000
    131 H11D        5.5250  -11.0570   -8.1170 H         1 TOC1        0.0000
    132 H11E        6.2420  -12.6860   -8.2040 H         1 TOC1        0.0000
    133 CB12        6.9920  -11.4730   -6.5800 C.3       1 TOC1        0.0000
    134 H12D        6.6670  -10.6160   -5.9480 H         1 TOC1        0.0000
    135 H12E        7.8210  -11.1140   -7.2330 H         1 TOC1        0.0000
    136 CB13        7.5320  -12.5990   -5.6860 C.3       1 TOC1        0.0000
    137 H13D        7.5660  -13.5380   -6.2860 H         1 TOC1        0.0000
    138 H13E        6.8290  -12.7670   -4.8400 H         1 TOC1        0.0000
    139 CB14        8.9440  -12.3390   -5.1360 C.3       1 TOC1        0.0000
    140 H14D        9.6610  -12.2900   -5.9860 H         1 TOC1        0.0000
    141 H14E        9.2340  -13.2100   -4.5050 H         1 TOC1        0.0000
    142 CB15        9.0730  -11.0550   -4.3000 C.3       1 TOC1        0.0000
    143 H15D        8.2570  -11.0310   -3.5440 H         1 TOC1        0.0000
    144 H15E        8.9470  -10.1700   -4.9630 H         1 TOC1        0.0000
    145 CB16       10.4270  -10.9650   -3.5760 C.3       1 TOC1        0.0000
    146 H16D       11.2480  -11.0460   -4.3230 H         1 TOC1        0.0000
    147 H16E       10.5180  -11.8300   -2.8820 H         1 TOC1        0.0000
    148 CB17       10.6210   -9.6710   -2.7710 C.3       1 TOC1        0.0000
    149 H17D        9.7680   -9.5490   -2.0660 H         1 TOC1        0.0000
    150 H17E       10.6030   -8.8030   -3.4700 H         1 TOC1        0.0000
    151 CB18       11.9330   -9.6500   -1.9770 C.3       1 TOC1        0.0000
    152 H18D       12.8040   -9.7630   -2.6580 H         1 TOC1        0.0000
    153 H18E       11.9550  -10.4830   -1.2420 H         1 TOC1        0.0000
    154 H18F       12.0430   -8.6930   -1.4240 H         1 TOC1        0.0000
    155 CC3         2.0080   -3.5320   -2.6200 C.3       1 TOC1        0.0000
    156 H3R         1.5490   -3.1540   -1.6760 H         1 TOC1        0.0000
    157 H3S         2.1130   -4.6350   -2.5020 H         1 TOC1        0.0000
    158 CC4         1.0140   -3.2750   -3.7690 C.3       1 TOC1        0.0000
    159 H4R         0.6190   -2.2390   -3.6460 H         1 TOC1        0.0000
    160 H4S         0.1520   -3.9660   -3.6440 H         1 TOC1        0.0000
    161 CC5         1.5640   -3.3970   -5.2010 C.3       1 TOC1        0.0000
    162 H5R         2.4220   -2.7040   -5.3270 H         1 TOC1        0.0000
    163 H5S         0.7670   -3.0430   -5.8950 H         1 TOC1        0.0000
    164 CC6         1.9710   -4.8160   -5.6270 C.3       1 TOC1        0.0000
    165 H6R         1.0570   -5.4520   -5.6150 H         1 TOC1        0.0000
    166 H6S         2.6890   -5.2530   -4.9000 H         1 TOC1        0.0000
    167 CC7         2.5830   -4.8350   -7.0410 C.3       1 TOC1        0.0000
    168 H7R         1.9910   -4.1400   -7.6790 H         1 TOC1        0.0000
    169 H7S         2.4790   -5.8550   -7.4740 H         1 TOC1        0.0000
    170 CC8         4.0770   -4.4440   -7.0510 C.3       1 TOC1        0.0000
    171 H8R         4.6570   -5.2920   -6.6190 H         1 TOC1        0.0000
    172 H8S         4.2170   -3.5820   -6.3610 H         1 TOC1        0.0000
    173 CC9         4.5960   -4.0560   -8.4170 C.2       1 TOC1        0.0000
    174 H9R         4.4980   -2.9840   -8.6540 H         1 TOC1        0.0000
    175 CC10        5.1580   -4.8620   -9.3340 C.2       1 TOC1        0.0000
    176 H10R        5.5100   -4.4210  -10.2790 H         1 TOC1        0.0000
    177 CC11        5.3520   -6.3580   -9.2420 C.3       1 TOC1        0.0000
    178 H11R        4.9090   -6.7620   -8.3060 H         1 TOC1        0.0000
    179 H11S        6.4360   -6.6140   -9.2280 H         1 TOC1        0.0000
    180 CC12        4.6890   -7.0890  -10.4290 C.3       1 TOC1        0.0000
    181 H12R        3.6460   -6.7310  -10.5610 H         1 TOC1        0.0000
    182 H12S        4.6210   -8.1700  -10.1770 H         1 TOC1        0.0000
    183 CC13        5.4690   -6.9540  -11.7490 C.3       1 TOC1        0.0000
    184 H13R        6.4710   -7.4140  -11.5990 H         1 TOC1        0.0000
    185 H13S        5.6210   -5.8790  -11.9970 H         1 TOC1        0.0000
    186 CC14        4.7880   -7.6370  -12.9470 C.3       1 TOC1        0.0000
    187 H14R        3.9200   -7.0140  -13.2550 H         1 TOC1        0.0000
    188 H14S        4.3870   -8.6320  -12.6540 H         1 TOC1        0.0000
    189 CC15        5.7390   -7.8100  -14.1440 C.3       1 TOC1        0.0000
    190 H15R        6.3550   -6.8900  -14.2620 H         1 TOC1        0.0000
    191 H15S        5.1340   -7.9360  -15.0720 H         1 TOC1        0.0000
    192 CC16        6.6550   -9.0380  -14.0090 C.3       1 TOC1        0.0000
    193 H16R        6.0240   -9.9510  -13.9180 H         1 TOC1        0.0000
    194 H16S        7.2630   -8.9540  -13.0810 H         1 TOC1        0.0000
    195 CC17        7.6020   -9.2050  -15.2050 C.3       1 TOC1        0.0000
    196 H17R        8.2800   -8.3240  -15.2500 H         1 TOC1        0.0000
    197 H17S        7.0000   -9.1970  -16.1400 H         1 TOC1        0.0000
    198 CC18        8.4360  -10.4890  -15.1620 C.3       1 TOC1        0.0000
    199 H18R        7.7730  -11.3810  -15.2020 H         1 TOC1        0.0000
    200 H18S        9.0290  -10.5320  -14.2230 H         1 TOC1        0.0000
    201 H18T        9.1360  -10.5270  -16.0270 H         1 TOC1        0.0000
    202 CD3         9.0810   -1.7400   -5.6350 C.3       1 TOC1        0.0000
    203 H3X         9.9280   -2.2510   -5.1200 H         1 TOC1        0.0000
    204 H3Y         9.2890   -0.6450   -5.6290 H         1 TOC1        0.0000
    205 CD4         9.0270   -2.2020   -7.1020 C.3       1 TOC1        0.0000
    206 H4X         8.6590   -3.2510   -7.1470 H         1 TOC1        0.0000
    207 H4Y        10.0570   -2.1900   -7.5250 H         1 TOC1        0.0000
    208 CD5         8.1390   -1.3020   -7.9760 C.3       1 TOC1        0.0000
    209 H5X         8.5640   -0.2730   -7.9930 H         1 TOC1        0.0000
    210 H5Y         7.1250   -1.2350   -7.5250 H         1 TOC1        0.0000
    211 CD6         7.9800   -1.8120   -9.4150 C.3       1 TOC1        0.0000
    212 H6X         7.6250   -2.8670   -9.3800 H         1 TOC1        0.0000
    213 H6Y         8.9660   -1.8040   -9.9270 H         1 TOC1        0.0000
    214 CD7         6.9630   -0.9750  -10.2070 C.3       1 TOC1        0.0000
    215 H7X         7.3290    0.0710  -10.3110 H         1 TOC1        0.0000
    216 H7Y         6.0230   -0.9360   -9.6090 H         1 TOC1        0.0000
    217 CD8         6.6090   -1.5580  -11.5880 C.3       1 TOC1        0.0000
    218 H8X         5.7130   -1.0090  -11.9600 H         1 TOC1        0.0000
    219 H8Y         6.3080   -2.6220  -11.4570 H         1 TOC1        0.0000
    220 CD9         7.7110   -1.4410  -12.6070 C.2       1 TOC1        0.0000
    221 H9X         8.6240   -0.9200  -12.2720 H         1 TOC1        0.0000
    222 CD10        7.6350   -1.8980  -13.8690 C.2       1 TOC1        0.0000
    223 H10X        8.4910   -1.7490  -14.5440 H         1 TOC1        0.0000
    224 CD11        6.4640   -2.6460  -14.4660 C.3       1 TOC1        0.0000
    225 H11X        5.9220   -2.0020  -15.1940 H         1 TOC1        0.0000
    226 H11Y        5.7270   -2.9390  -13.6850 H         1 TOC1        0.0000
    227 CD12        6.9070   -3.9360  -15.1840 C.3       1 TOC1        0.0000
    228 H12X        6.0080   -4.5730  -15.3550 H         1 TOC1        0.0000
    229 H12Y        7.5970   -4.5140  -14.5310 H         1 TOC1        0.0000
    230 CD13        7.5510   -3.6680  -16.5540 C.3       1 TOC1        0.0000
    231 H13X        8.3730   -2.9270  -16.4560 H         1 TOC1        0.0000
    232 H13Y        6.7770   -3.2180  -17.2150 H         1 TOC1        0.0000
    233 CD14        8.1080   -4.9310  -17.2250 C.3       1 TOC1        0.0000
    234 H14X        8.2920   -4.7070  -18.3020 H         1 TOC1        0.0000
    235 H14Y        7.3560   -5.7480  -17.1720 H         1 TOC1        0.0000
    236 CD15        9.4300   -5.3940  -16.5990 C.3       1 TOC1        0.0000
    237 H15X        9.2700   -5.6400  -15.5260 H         1 TOC1        0.0000
    238 H15Y       10.1640   -4.5570  -16.6470 H         1 TOC1        0.0000
    239 CD16       10.0240   -6.6160  -17.3080 C.3       1 TOC1        0.0000
    240 H16X       10.1610   -6.3850  -18.3880 H         1 TOC1        0.0000
    241 H16Y        9.3070   -7.4640  -17.2350 H         1 TOC1        0.0000
    242 CD17       11.3710   -7.0370  -16.7110 C.3       1 TOC1        0.0000
    243 H17X       11.2330   -7.2360  -15.6230 H         1 TOC1        0.0000
    244 H17Y       12.0850   -6.1860  -16.8050 H         1 TOC1        0.0000
    245 CD18       11.9690   -8.2760  -17.3780 C.3       1 TOC1        0.0000
    246 H18X       12.1210   -8.0980  -18.4650 H         1 TOC1        0.0000
    247 H18Y       11.2920   -9.1490  -17.2530 H         1 TOC1        0.0000
    248 H18Z       12.9520   -8.5250  -16.9230 H         1 TOC1        0.0000
@<TRIPOS>BOND
     1  246  245 1 
     2  240  239 1 
     3  234  233 1 
     4  245  247 1 
     5  245  248 1 
     6  245  242 1 
     7  107  104 1 
     8  239  241 1 
     9  239  242 1 
    10  239  236 1 
    11  233  235 1 
    12  233  236 1 
    13  233  230 1 
    14  232  230 1 
    15  244  242 1 
    16  242  243 1 
    17  238  236 1 
    18  236  237 1 
    19  230  231 1 
    20  230  227 1 
    21  104  106 1 
    22  104  105 1 
    23  104  101 1 
    24  102  101 1 
    25  197  195 1 
    26  201  198 1 
    27  103  101 1 
    28  101   98 1 
    29  228  227 1 
    30  196  195 1 
    31  195  198 1 
    32  195  192 1 
    33  199  198 1 
    34  225  224 1 
    35  227  229 1 
    36  227  224 1 
    37  198  200 1 
    38  191  189 1 
    39  223  222 1 
    40  224  222 1 
    41  224  226 1 
    42  190  189 1 
    43   96   95 1 
    44   98  100 1 
    45   98   99 1 
    46   98   95 1 
    47  189  192 1 
    48  189  186 1 
    49  192  193 1 
    50  192  194 1 
    51   97   95 1 
    52  222  220 2 
    53   95   92 1 
    54  187  186 1 
    55  186  188 1 
    56  186  183 1 
    57   88   86 1 
    58  220  221 1 
    59  220  217 1 
    60   91   89 1 
    61   92   94 1 
    62   92   93 1 
    63   92   89 1 
    64  185  183 1 
    65  218  217 1 
    66  183  184 1 
    67  183  180 1 
    68   89   86 1 
    69   89   90 1 
    70   86   87 1 
    71   86   83 1 
    72  217  219 1 
    73  217  214 1 
    74   82   81 1 
    75   84   83 1 
    76   83   81 1 
    77   83   85 1 
    78   81   79 2 
    79  181  180 1 
    80  180  182 1 
    81  180  177 1 
    82  215  214 1 
    83  176  175 1 
    84  214  216 1 
    85  214  211 1 
    86  213  211 1 
    87   80   79 1 
    88   79   76 1 
    89  211  212 1 
    90  211  208 1 
    91  175  177 1 
    92  175  173 2 
    93  177  179 1 
    94  177  178 1 
    95  174  173 1 
    96  173  170 1 
    97   74   73 1 
    98  132  130 1 
    99  131  130 1 
   100   76   78 1 
   101   76   73 1 
   102   76   77 1 
   103  209  208 1 
   104  208  210 1 
   105  208  205 1 
   106   75   73 1 
   107  168  167 1 
   108   73   70 1 
   109  207  205 1 
   110  130  128 1 
   111  130  133 1 
   112  169  167 1 
   113  135  133 1 
   114  206  205 1 
   115  205  202 1 
   116  170  167 1 
   117  170  171 1 
   118  170  172 1 
   119  167  164 1 
   120  125  123 1 
   121  124  123 1 
   122  128  129 1 
   123  128  126 2 
   124  133  134 1 
   125  133  136 1 
   126   69   67 1 
   127  123  126 1 
   128  123  120 1 
   129  137  136 1 
   130  126  127 1 
   131   70   71 1 
   132   70   67 1 
   133   70   72 1 
   134  140  139 1 
   135   68   67 1 
   136  163  161 1 
   137   67   64 1 
   138  136  139 1 
   139  136  138 1 
   140  202  204 1 
   141  202  203 1 
   142  202   58 1 
   143  164  165 1 
   144  164  161 1 
   145  164  166 1 
   146   59   58 1 
   147  162  161 1 
   148  161  158 1 
   149  139  141 1 
   150  139  142 1 
   151  122  120 1 
   152  144  142 1 
   153  120  121 1 
   154  120  117 1 
   155   58   60 1 
   156   58   56 1 
   157  118  117 1 
   158  146  145 1 
   159  142  145 1 
   160  142  143 1 
   161   64   65 1 
   162   64   66 1 
   163   64   61 1 
   164  119  117 1 
   165  117  114 1 
   166   45   44 1 
   167   55   56 1 
   168   55   52 1 
   169  158  159 1 
   170  158  160 1 
   171  158  155 1 
   172   51   49 1 
   173   48   47 2 
   174  145  147 1 
   175  145  148 1 
   176   56   57 2 
   177   63   61 1 
   178  150  148 1 
   179   62   61 1 
   180   61   32 1 
   181  113  111 1 
   182   47   49 1 
   183   47   46 1 
   184   44   52 1 
   185   44   46 1 
   186   44    9 1 
   187   49  155 1 
   188   49   50 1 
   189  148  149 1 
   190  148  151 1 
   191  112  111 1 
   192   54   52 1 
   193   52   53 1 
   194  114  111 1 
   195  114  115 1 
   196  114  116 1 
   197  152  151 1 
   198  155  157 1 
   199  155  156 1 
   200  111  108 1 
   201   11    9 1 
   202  151  154 1 
   203  151  153 1 
   204   10    9 1 
   205    9    8 1 
   206   32   33 1 
   207   32   34 1 
   208   32   30 1 
   209   42   41 1 
   210   18   16 1 
   211   14   15 1 
   212   14   12 1 
   213   31   30 2 
   214  108  110 1 
   215  108   41 1 
   216  108  109 1 
   217   30   29 1 
   218    3    1 1 
   219   41   43 1 
   220   41   39 1 
   221    8    4 1 
   222   16   22 1 
   223   16   12 1 
   224   16   17 1 
   225   22   19 1 
   226   12    1 1 
   227   12   13 1 
   228    1    7 1 
   229    1    2 1 
   230    7    4 1 
   231   29   27 1 
   232    6    4 2 
   233    4    5 1 
   234   39   38 1 
   235   39   40 2 
   236   38   35 1 
   237   28   27 1 
   238   21   19 2 
   239   19   20 1 
   240   19   23 1 
   241   27   35 1 
   242   27   24 1 
   243   35   36 1 
   244   35   37 1 
   245   23   24 1 
   246   24   25 1 
   247   24   26 1 
