@<TRIPOS>MOLECULE
C:\Users\Praveer\PycharmProjects\pdb_to_mol2_converter\data\pdb\tocl1.pdb
  249   248     0     0     0
SMALL
GASTEIGER

@<TRIPOS>ATOM
      1 C3          1.5870   -0.1650   -0.0790 C.3       1 TOC1        0.0000
      2 HG31        1.8610   -0.6270    0.9010 H         1 TOC1        0.0000
      3 HG32        1.9030   -0.8500   -0.8960 H         1 TOC1        0.0000
      4 P3          3.6550    1.4450    0.2700 P.3       1 TOC1        0.0000
      5 OP33        3.5050    2.4120    1.3760 O.3       1 TOC1        0.0000
      6 OP34        4.5440    1.7970   -0.8580 O.2       1 TOC1        0.0000
      7 OP31        2.2150    1.0950   -0.2850 O.3       1 TOC1        0.0000
      8 OP32        4.1320    0.0630    0.8840 O.3       1 TOC1        0.0000
      9 C31         4.9250   -0.8250    0.0960 C.3       1 TOC1        0.0000
     10 H31J        5.9010   -0.3470   -0.1490 H         1 TOC1        0.0000
     11 H31K        4.4230   -1.0720   -0.8670 H         1 TOC1        0.0000
     12 C2          0.0470   -0.0060   -0.0940 C.3       1 TOC1        0.0000
     13 HG22       -0.2360    0.6490   -0.9490 H         1 TOC1        0.0000
     14 OG12       -0.5370   -1.2960   -0.2830 O.3       1 TOC1        0.0000
     15 HO12       -0.1570   -1.6280   -1.1020 H         1 TOC1        0.0000
     16 C1         -0.5170    0.6300    1.2090 C.3       1 TOC1        0.0000
     17 HG11       -0.1910   -0.0430    2.0430 H         1 TOC1        0.0000
     18 HG12       -1.6280    0.5930    1.1560 H         1 TOC1        0.0000
     19 P1          0.2500    2.4870    2.7900 P.3       1 TOC1        0.0000
     20 OP13        1.6580    1.9780    3.2330 O.3       1 TOC1        0.0000
     21 HP13        2.3440    2.2620    2.5930 H         1 TOC1        0.0000
     22 OP14        0.1790    3.9460    2.9760 O.2       1 TOC1        0.0000
     23 OP11       -0.1040    1.9950    1.3450 O.3       1 TOC1        0.0000
     24 OP12       -0.8030    1.7610    3.7040 O.3       1 TOC1        0.0000
     25 C11        -0.9180    2.2450    5.0440 C.3       1 TOC1        0.0000
     26 H11J       -1.8960    1.8790    5.4230 H         1 TOC1        0.0000
     27 H11K       -0.9620    3.3580    5.1120 H         1 TOC1        0.0000
     28 C12         0.1840    1.7030    6.0170 C.3       1 TOC1        0.0000
     29 H12J        1.0440    2.4100    5.9270 H         1 TOC1        0.0000
     30 O12         0.5890    0.3790    5.6130 O.3       1 TOC1        0.0000
     31 CA1         1.8030    0.0200    6.0250 C.2       1 TOC1        0.0000
     32 OA1         2.4900    0.6440    6.8150 O.2       1 TOC1        0.0000
     33 CA2         2.2180   -1.2460    5.2720 C.3       1 TOC1        0.0000
     34 H2A         2.9380   -0.9290    4.4850 H         1 TOC1        0.0000
     35 H2B         1.3280   -1.6760    4.7690 H         1 TOC1        0.0000
     36 C13        -0.3140    1.7240    7.4910 C.3       1 TOC1        0.0000
     37 H13J       -0.5350    2.7820    7.7540 H         1 TOC1        0.0000
     38 H13K        0.4990    1.3960    8.1790 H         1 TOC1        0.0000
     39 O13        -1.5290    0.9540    7.6230 O.3       1 TOC1        0.0000
     40 CB1        -1.3570   -0.3220    7.9630 C.2       1 TOC1        0.0000
     41 OB1        -0.3190   -0.8180    8.3610 O.2       1 TOC1        0.0000
     42 CB2        -2.6640   -1.0840    7.7670 C.3       1 TOC1        0.0000
     43 H2D        -3.2030   -0.6360    6.9070 H         1 TOC1        0.0000
     44 H2E        -3.2720   -0.9450    8.6830 H         1 TOC1        0.0000
     45 C32         5.2140   -2.1210    0.9000 C.3       1 TOC1        0.0000
     46 H32J        5.9000   -2.7680    0.3060 H         1 TOC1        0.0000
     47 O32         4.0050   -2.8330    1.2140 O.3       1 TOC1        0.0000
     48 CC1         3.3960   -3.4130    0.2050 C.2       1 TOC1        0.0000
     49 OC1         3.7540   -3.4240   -0.9590 O.2       1 TOC1        0.0000
     50 CC2         2.1910   -4.1700    0.7500 C.3       1 TOC1        0.0000
     51 H2R         1.4890   -4.3600   -0.0860 H         1 TOC1        0.0000
     52 H2S         1.6900   -3.5200    1.4970 H         1 TOC1        0.0000
     53 C33         5.9290   -1.7770    2.2360 C.3       1 TOC1        0.0000
     54 H33J        5.2600   -1.0430    2.7500 H         1 TOC1        0.0000
     55 H33K        6.8940   -1.2720    2.0130 H         1 TOC1        0.0000
     56 O33         6.1490   -2.9680    3.0310 O.3       1 TOC1        0.0000
     57 CD1         6.2420   -2.7290    4.3360 C.2       1 TOC1        0.0000
     58 OD1         6.3060   -1.6250    4.8500 O.2       1 TOC1        0.0000
     59 CD2         6.2500   -4.0370    5.1290 C.3       1 TOC1        0.0000
     60 H2X         5.9190   -3.7870    6.1590 H         1 TOC1        0.0000
     61 H2Y         7.2960   -4.4000    5.1730 H         1 TOC1        0.0000
     62 CA3         2.8790   -2.3110    6.1750 C.3       1 TOC1        0.0000
     63 H3A         3.7740   -1.8870    6.6850 H         1 TOC1        0.0000
     64 H3B         3.2290   -3.1360    5.5140 H         1 TOC1        0.0000
     65 CA4         1.9150   -2.9110    7.2070 C.3       1 TOC1        0.0000
     66 H4A         0.9340   -3.1090    6.7210 H         1 TOC1        0.0000
     67 H4B         1.7420   -2.1700    8.0190 H         1 TOC1        0.0000
     68 CA5         2.4310   -4.2190    7.8260 C.3       1 TOC1        0.0000
     69 H5A         3.4010   -4.0210    8.3310 H         1 TOC1        0.0000
     70 H5B         2.6130   -4.9540    7.0110 H         1 TOC1        0.0000
     71 CA6         1.4380   -4.8240    8.8320 C.3       1 TOC1        0.0000
     72 H6A         0.4550   -4.9420    8.3230 H         1 TOC1        0.0000
     73 H6B         1.2840   -4.1090    9.6680 H         1 TOC1        0.0000
     74 CA7         1.8670   -6.2000    9.3780 C.3       1 TOC1        0.0000
     75 H7A         2.0120   -6.8850    8.5110 H         1 TOC1        0.0000
     76 H7B         1.0390   -6.6200    9.9920 H         1 TOC1        0.0000
     77 CA8         3.1650   -6.2010   10.2140 C.3       1 TOC1        0.0000
     78 H8A         3.9890   -5.7750    9.6020 H         1 TOC1        0.0000
     79 H8B         3.4320   -7.2650   10.4090 H         1 TOC1        0.0000
     80 CA9         3.0170   -5.4240   11.5010 C.2       1 TOC1        0.0000
     81 H9A         2.6370   -4.3980   11.3760 H         1 TOC1        0.0000
     82 CA10        3.2720   -5.8640   12.7470 C.2       1 TOC1        0.0000
     83 H10A        3.0960   -5.1820   13.5940 H         1 TOC1        0.0000
     84 CA11        3.8100   -7.2190   13.1380 C.3       1 TOC1        0.0000
     85 H11A        4.4610   -7.1140   14.0330 H         1 TOC1        0.0000
     86 H11B        4.4520   -7.6460   12.3360 H         1 TOC1        0.0000
     87 CA12        2.6960   -8.2320   13.4590 C.3       1 TOC1        0.0000
     88 H12A        2.1270   -8.4510   12.5270 H         1 TOC1        0.0000
     89 H12B        1.9880   -7.7970   14.1990 H         1 TOC1        0.0000
     90 CA13        3.2530   -9.5480   14.0250 C.3       1 TOC1        0.0000
     91 H13A        3.7140   -9.3540   15.0180 H         1 TOC1        0.0000
     92 H13B        4.0650   -9.9050   13.3540 H         1 TOC1        0.0000
     93 CA14        2.2000  -10.6630   14.1490 C.3       1 TOC1        0.0000
     94 H14A        2.7110  -11.5940   14.4830 H         1 TOC1        0.0000
     95 H14B        1.7740  -10.8600   13.1400 H         1 TOC1        0.0000
     96 CA15        1.0470  -10.3590   15.1230 C.3       1 TOC1        0.0000
     97 H15A        0.3250  -11.2070   15.0810 H         1 TOC1        0.0000
     98 H15B        0.5060   -9.4460   14.7940 H         1 TOC1        0.0000
     99 CA16        1.5030  -10.1940   16.5820 C.3       1 TOC1        0.0000
    100 H16A        2.1150   -9.2710   16.6810 H         1 TOC1        0.0000
    101 H16B        2.1520  -11.0590   16.8480 H         1 TOC1        0.0000
    102 CA17        0.3380  -10.1360   17.5830 C.3       1 TOC1        0.0000
    103 H17A        0.7550  -10.1870   18.6150 H         1 TOC1        0.0000
    104 H17B       -0.2990  -11.0390   17.4410 H         1 TOC1        0.0000
    105 CA18       -0.5330   -8.8810   17.4680 C.3       1 TOC1        0.0000
    106 H18A       -0.9900   -8.8070   16.4590 H         1 TOC1        0.0000
    107 H18B        0.0760   -7.9690   17.6460 H         1 TOC1        0.0000
    108 H18C       -1.3520   -8.9060   18.2180 H         1 TOC1        0.0000
    109 CB3        -2.4210   -2.5890    7.4980 C.3       1 TOC1        0.0000
    110 H3D        -1.8860   -3.0510    8.3570 H         1 TOC1        0.0000
    111 H3E        -1.7580   -2.6940    6.6080 H         1 TOC1        0.0000
    112 CB4        -3.7190   -3.3650    7.2200 C.3       1 TOC1        0.0000
    113 H4D        -3.4710   -4.3800    6.8470 H         1 TOC1        0.0000
    114 H4E        -4.2660   -2.8450    6.4010 H         1 TOC1        0.0000
    115 CB5        -4.6550   -3.5040    8.4340 C.3       1 TOC1        0.0000
    116 H5D        -5.6380   -3.8880    8.0800 H         1 TOC1        0.0000
    117 H5E        -4.8400   -2.4950    8.8620 H         1 TOC1        0.0000
    118 CB6        -4.1450   -4.4370    9.5500 C.3       1 TOC1        0.0000
    119 H6D        -4.7620   -4.2410   10.4580 H         1 TOC1        0.0000
    120 H6E        -3.0910   -4.2030    9.8070 H         1 TOC1        0.0000
    121 CB7        -4.2950   -5.9310    9.2120 C.3       1 TOC1        0.0000
    122 H7D        -3.5890   -6.2220    8.4080 H         1 TOC1        0.0000
    123 H7E        -5.3240   -6.0820    8.8110 H         1 TOC1        0.0000
    124 CB8        -4.1390   -6.8640   10.4320 C.3       1 TOC1        0.0000
    125 H8D        -4.6000   -7.8390   10.1530 H         1 TOC1        0.0000
    126 H8E        -4.7500   -6.4470   11.2640 H         1 TOC1        0.0000
    127 CB9        -2.7130   -7.0550   10.8890 C.2       1 TOC1        0.0000
    128 H9D        -2.0310   -6.2200   10.6640 H         1 TOC1        0.0000
    129 CB10       -2.2310   -8.1400   11.5310 C.2       1 TOC1        0.0000
    130 H10D       -1.1700   -8.1540   11.8260 H         1 TOC1        0.0000
    131 CB11       -3.0150   -9.3670   11.9350 C.3       1 TOC1        0.0000
    132 H11D       -2.4640  -10.2820   11.6220 H         1 TOC1        0.0000
    133 H11E       -4.0040   -9.4130   11.4290 H         1 TOC1        0.0000
    134 CB12       -3.2780   -9.4560   13.4550 C.3       1 TOC1        0.0000
    135 H12D       -2.3150   -9.4920   14.0100 H         1 TOC1        0.0000
    136 H12E       -3.8100  -10.4150   13.6480 H         1 TOC1        0.0000
    137 CB13       -4.1380   -8.3010   13.9980 C.3       1 TOC1        0.0000
    138 H13D       -5.0660   -8.2200   13.3910 H         1 TOC1        0.0000
    139 H13E       -3.5780   -7.3470   13.8620 H         1 TOC1        0.0000
    140 CB14       -4.5080   -8.4280   15.4880 C.3       1 TOC1        0.0000
    141 H14D       -5.0680   -7.5120   15.7850 H         1 TOC1        0.0000
    142 H14E       -3.5710   -8.4520   16.0870 H         1 TOC1        0.0000
    143 CB15       -5.3610   -9.6560   15.8540 C.3       1 TOC1        0.0000
    144 H15D       -5.5890   -9.6120   16.9430 H         1 TOC1        0.0000
    145 H15E       -4.7720  -10.5820   15.6780 H         1 TOC1        0.0000
    146 CB16       -6.6850   -9.7490   15.0800 C.3       1 TOC1        0.0000
    147 H16D       -6.4710   -9.8650   13.9940 H         1 TOC1        0.0000
    148 H16E       -7.2560   -8.8030   15.2130 H         1 TOC1        0.0000
    149 CB17       -7.5570  -10.9280   15.5350 C.3       1 TOC1        0.0000
    150 H17D       -7.7990  -10.7990   16.6140 H         1 TOC1        0.0000
    151 H17E       -6.9670  -11.8670   15.4350 H         1 TOC1        0.0000
    152 CB18       -8.8570  -11.0630   14.7380 C.3       1 TOC1        0.0000
    153 H18D       -8.6370  -11.2140   13.6590 H         1 TOC1        0.0000
    154 H18E       -9.4760  -10.1460   14.8440 H         1 TOC1        0.0000
    155 H18F       -9.4490  -11.9310   15.1000 H         1 TOC1        0.0000
    156 CC3         2.6540   -5.4960    1.3910 C.3       1 TOC1        0.0000
    157 H3R         3.4780   -5.2970    2.1150 H         1 TOC1        0.0000
    158 H3S         3.0590   -6.1650    0.5960 H         1 TOC1        0.0000
    159 CC4         1.5470   -6.2420    2.1430 C.3       1 TOC1        0.0000
    160 H4R         1.9680   -7.2090    2.5030 H         1 TOC1        0.0000
    161 H4S         0.7100   -6.4810    1.4500 H         1 TOC1        0.0000
    162 CC5         0.9990   -5.4780    3.3560 C.3       1 TOC1        0.0000
    163 H5R         0.3420   -4.6510    3.0050 H         1 TOC1        0.0000
    164 H5S         1.8360   -5.0260    3.9330 H         1 TOC1        0.0000
    165 CC6         0.2080   -6.4170    4.2700 C.3       1 TOC1        0.0000
    166 H6R         0.9130   -7.1410    4.7350 H         1 TOC1        0.0000
    167 H6S        -0.5060   -6.9940    3.6400 H         1 TOC1        0.0000
    168 CC7        -0.5900   -5.7070    5.3690 C.3       1 TOC1        0.0000
    169 H7R        -1.2370   -4.9410    4.8830 H         1 TOC1        0.0000
    170 H7S         0.0990   -5.1730    6.0570 H         1 TOC1        0.0000
    171 CC8        -1.5000   -6.6800    6.1460 C.3       1 TOC1        0.0000
    172 H8R        -2.0760   -7.2850    5.4120 H         1 TOC1        0.0000
    173 H8S        -2.2470   -6.0790    6.7010 H         1 TOC1        0.0000
    174 CC9        -0.7790   -7.5660    7.1290 C.2       1 TOC1        0.0000
    175 H9R        -0.6710   -7.1370    8.1370 H         1 TOC1        0.0000
    176 CC10       -0.3010   -8.8040    6.9030 C.2       1 TOC1        0.0000
    177 H10R        0.1820   -9.3280    7.7380 H         1 TOC1        0.0000
    178 CC11       -0.3170   -9.5800    5.6080 C.3       1 TOC1        0.0000
    179 H11R        0.7250   -9.8570    5.3300 H         1 TOC1        0.0000
    180 H11S       -0.7090   -8.9640    4.7700 H         1 TOC1        0.0000
    181 CC12       -1.1650  -10.8680    5.6440 C.3       1 TOC1        0.0000
    182 H12R       -1.0710  -11.3580    4.6470 H         1 TOC1        0.0000
    183 H12S       -2.2360  -10.5950    5.7730 H         1 TOC1        0.0000
    184 CC13       -0.7420  -11.8830    6.7210 C.3       1 TOC1        0.0000
    185 H13R        0.3050  -11.6760    7.0320 H         1 TOC1        0.0000
    186 H13S       -0.7560  -12.9070    6.2830 H         1 TOC1        0.0000
    187 CC14       -1.6680  -11.8760    7.9480 C.3       1 TOC1        0.0000
    188 H14R       -1.8390  -10.8240    8.2650 H         1 TOC1        0.0000
    189 H14S       -1.1740  -12.4110    8.7900 H         1 TOC1        0.0000
    190 CC15       -3.0190  -12.5520    7.6680 C.3       1 TOC1        0.0000
    191 H15R       -2.8570  -13.6450    7.5430 H         1 TOC1        0.0000
    192 H15S       -3.4320  -12.1690    6.7080 H         1 TOC1        0.0000
    193 CC16       -4.0620  -12.2940    8.7650 C.3       1 TOC1        0.0000
    194 H16R       -4.1520  -11.1940    8.9140 H         1 TOC1        0.0000
    195 H16S       -3.7130  -12.7360    9.7240 H         1 TOC1        0.0000
    196 CC17       -5.4530  -12.8480    8.4190 C.3       1 TOC1        0.0000
    197 H17R       -5.7740  -12.4150    7.4430 H         1 TOC1        0.0000
    198 H17S       -6.1740  -12.4950    9.1910 H         1 TOC1        0.0000
    199 CC18       -5.5240  -14.3760    8.3390 C.3       1 TOC1        0.0000
    200 H18R       -5.2260  -14.8290    9.3090 H         1 TOC1        0.0000
    201 H18S       -4.8470  -14.7630    7.5480 H         1 TOC1        0.0000
    202 H18T       -6.5590  -14.7020    8.1000 H         1 TOC1        0.0000
    203 CD3         5.3300   -5.1320    4.5420 C.3       1 TOC1        0.0000
    204 H3X         5.7050   -5.4270    3.5350 H         1 TOC1        0.0000
    205 H3Y         4.2980   -4.7370    4.4090 H         1 TOC1        0.0000
    206 CD4         5.2670   -6.3830    5.4320 C.3       1 TOC1        0.0000
    207 H4X         4.8240   -6.1220    6.4180 H         1 TOC1        0.0000
    208 H4Y         6.3050   -6.7450    5.6120 H         1 TOC1        0.0000
    209 CD5         4.4540   -7.5110    4.7820 C.3       1 TOC1        0.0000
    210 H5X         4.8590   -7.6720    3.7560 H         1 TOC1        0.0000
    211 H5Y         3.3920   -7.2000    4.6790 H         1 TOC1        0.0000
    212 CD6         4.5300   -8.8490    5.5350 C.3       1 TOC1        0.0000
    213 H6X         5.5910   -9.0870    5.7660 H         1 TOC1        0.0000
    214 H6Y         4.1520   -9.6480    4.8560 H         1 TOC1        0.0000
    215 CD7         3.6980   -8.8920    6.8260 C.3       1 TOC1        0.0000
    216 H7X         2.6600   -8.5640    6.5930 H         1 TOC1        0.0000
    217 H7Y         4.1250   -8.1750    7.5630 H         1 TOC1        0.0000
    218 CD8         3.6620  -10.3080    7.4350 C.3       1 TOC1        0.0000
    219 H8X         4.7120  -10.6270    7.6190 H         1 TOC1        0.0000
    220 H8Y         3.2560  -11.0080    6.6720 H         1 TOC1        0.0000
    221 CD9         2.8190  -10.3850    8.6840 C.2       1 TOC1        0.0000
    222 H9X         1.7360  -10.4220    8.4990 H         1 TOC1        0.0000
    223 CD10        3.2490  -10.4400    9.9570 C.2       1 TOC1        0.0000
    224 H10X        2.5060  -10.5000   10.7670 H         1 TOC1        0.0000
    225 CD11        4.6830  -10.4220   10.4230 C.3       1 TOC1        0.0000
    226 H11X        4.8460   -9.5680   11.1160 H         1 TOC1        0.0000
    227 H11Y        5.3910  -10.2770    9.5800 H         1 TOC1        0.0000
    228 CD12        5.0620  -11.7250   11.1490 C.3       1 TOC1        0.0000
    229 H12X        4.8520  -12.6000   10.4920 H         1 TOC1        0.0000
    230 H12Y        4.4430  -11.8310   12.0670 H         1 TOC1        0.0000
    231 CD13        6.5480  -11.7450   11.5340 C.3       1 TOC1        0.0000
    232 H13X        6.7910  -10.8280   12.1140 H         1 TOC1        0.0000
    233 H13Y        7.1510  -11.7130   10.5980 H         1 TOC1        0.0000
    234 CD14        6.9690  -12.9790   12.3450 C.3       1 TOC1        0.0000
    235 H14X        8.0810  -12.9890   12.3900 H         1 TOC1        0.0000
    236 H14Y        6.6480  -13.9040   11.8170 H         1 TOC1        0.0000
    237 CD15        6.4180  -12.9850   13.7810 C.3       1 TOC1        0.0000
    238 H15X        5.3210  -13.1640   13.7390 H         1 TOC1        0.0000
    239 H15Y        6.5780  -11.9880   14.2470 H         1 TOC1        0.0000
    240 CD16        7.0720  -14.0580   14.6670 C.3       1 TOC1        0.0000
    241 H16X        7.1090  -15.0200   14.1080 H         1 TOC1        0.0000
    242 H16Y        6.4380  -14.2170   15.5690 H         1 TOC1        0.0000
    243 CD17        8.4850  -13.6810   15.1380 C.3       1 TOC1        0.0000
    244 H17X        8.4130  -12.7940   15.8090 H         1 TOC1        0.0000
    245 H17Y        9.1020  -13.3790   14.2630 H         1 TOC1        0.0000
    246 CD18        9.2040  -14.8150   15.8730 C.3       1 TOC1        0.0000
    247 H18X        9.3340  -15.6880   15.1970 H         1 TOC1        0.0000
    248 H18Y        8.6200  -15.1400   16.7600 H         1 TOC1        0.0000
    249 H18Z       10.2080  -14.4820   16.2120 H         1 TOC1        0.0000
@<TRIPOS>BOND
     1   15   14 1 
     2   49   48 2 
     3   13   12 1 
     4    3    1 1 
     5   11    9 1 
     6    6    4 2 
     7    7    1 1 
     8    7    4 1 
     9   14   12 1 
    10   10    9 1 
    11   12    1 1 
    12   12   16 1 
    13   51   50 1 
    14    1    2 1 
    15    9    8 1 
    16    9   45 1 
    17   48   50 1 
    18   48   47 1 
    19    4    8 1 
    20    4    5 1 
    21   46   45 1 
    22  158  156 1 
    23   50  156 1 
    24   50   52 1 
    25   45   47 1 
    26   45   53 1 
    27   18   16 1 
    28   16   23 1 
    29   16   17 1 
    30   23   19 1 
    31  156  157 1 
    32  156  159 1 
    33  161  159 1 
    34   55   53 1 
    35  159  160 1 
    36  159  162 1 
    37   53   54 1 
    38   53   56 1 
    39   21   20 1 
    40   19   22 2 
    41   19   20 1 
    42   19   24 1 
    43  163  162 1 
    44   56   57 1 
    45  162  164 1 
    46  162  165 1 
    47  204  203 1 
    48  167  165 1 
    49   24   25 1 
    50  210  209 1 
    51  165  166 1 
    52  165  168 1 
    53   57   58 2 
    54   57   59 1 
    55  205  203 1 
    56   34   33 1 
    57  203   59 1 
    58  203  206 1 
    59  182  181 1 
    60  211  209 1 
    61   35   33 1 
    62  180  178 1 
    63  209  206 1 
    64  209  212 1 
    65  214  212 1 
    66  169  168 1 
    67   25   27 1 
    68   25   26 1 
    69   25   28 1 
    70   59   61 1 
    71   59   60 1 
    72   33   31 1 
    73   33   62 1 
    74  179  178 1 
    75  168  170 1 
    76  168  171 1 
    77  172  171 1 
    78  206  208 1 
    79  206  207 1 
    80   64   62 1 
    81  212  213 1 
    82  212  215 1 
    83  178  181 1 
    84  178  176 1 
    85   30   28 1 
    86   30   31 1 
    87  181  183 1 
    88  181  184 1 
    89   29   28 1 
    90   28   36 1 
    91   31   32 2 
    92  171  173 1 
    93  171  174 1 
    94   62   63 1 
    95   62   65 1 
    96  186  184 1 
    97  114  112 1 
    98  216  215 1 
    99  111  109 1 
   100  220  218 1 
   101  192  190 1 
   102  184  185 1 
   103  184  187 1 
   104   66   65 1 
   105  215  218 1 
   106  215  217 1 
   107  113  112 1 
   108  176  174 2 
   109  176  177 1 
   110   43   42 1 
   111   70   68 1 
   112  174  175 1 
   113   65   68 1 
   114   65   67 1 
   115  112  109 1 
   116  112  115 1 
   117  218  219 1 
   118  218  221 1 
   119  197  196 1 
   120   36   39 1 
   121   36   37 1 
   122   36   38 1 
   123  109   42 1 
   124  109  110 1 
   125  191  190 1 
   126  201  199 1 
   127   39   40 1 
   128  190  187 1 
   129  190  193 1 
   130   42   40 1 
   131   42   44 1 
   132   68   69 1 
   133   68   71 1 
   134  187  188 1 
   135  187  189 1 
   136   40   41 2 
   137  116  115 1 
   138  202  199 1 
   139   72   71 1 
   140  199  196 1 
   141  199  200 1 
   142  122  121 1 
   143  196  193 1 
   144  196  198 1 
   145  115  117 1 
   146  115  118 1 
   147  222  221 1 
   148   75   74 1 
   149  221  223 2 
   150  193  194 1 
   151  193  195 1 
   152  123  121 1 
   153   71   74 1 
   154   71   73 1 
   155  121  118 1 
   156  121  124 1 
   157   74   76 1 
   158   74   77 1 
   159  118  120 1 
   160  118  119 1 
   161  227  225 1 
   162   78   77 1 
   163  223  225 1 
   164  223  224 1 
   165  125  124 1 
   166   77   79 1 
   167   77   80 1 
   168  225  226 1 
   169  225  228 1 
   170  124  127 1 
   171  124  126 1 
   172  229  228 1 
   173  233  231 1 
   174  128  127 1 
   175  127  129 2 
   176  228  231 1 
   177  228  230 1 
   178   81   80 1 
   179  133  131 1 
   180   80   82 2 
   181  129  130 1 
   182  129  131 1 
   183  231  232 1 
   184  231  234 1 
   185  132  131 1 
   186  236  234 1 
   187  131  134 1 
   188   86   84 1 
   189  234  235 1 
   190  234  237 1 
   191   88   87 1 
   192   82   84 1 
   193   82   83 1 
   194   84   87 1 
   195   84   85 1 
   196   95   93 1 
   197   92   90 1 
   198  138  137 1 
   199  134  136 1 
   200  134  137 1 
   201  134  135 1 
   202   87   90 1 
   203   87   89 1 
   204  153  152 1 
   205  238  237 1 
   206  237  239 1 
   207  237  240 1 
   208  139  137 1 
   209  147  146 1 
   210  137  140 1 
   211   90   93 1 
   212   90   91 1 
   213  241  240 1 
   214   93   94 1 
   215   93   96 1 
   216  245  243 1 
   217  240  243 1 
   218  240  242 1 
   219  152  154 1 
   220  152  155 1 
   221  152  149 1 
   222   98   96 1 
   223  146  148 1 
   224  146  149 1 
   225  146  143 1 
   226   97   96 1 
   227   96   99 1 
   228  243  244 1 
   229  243  246 1 
   230  247  246 1 
   231  151  149 1 
   232  140  141 1 
   233  140  143 1 
   234  140  142 1 
   235  149  150 1 
   236  145  143 1 
   237  143  144 1 
   238  246  249 1 
   239  246  248 1 
   240  106  105 1 
   241   99  100 1 
   242   99  101 1 
   243   99  102 1 
   244  104  102 1 
   245  105  102 1 
   246  105  107 1 
   247  105  108 1 
   248  102  103 1 
