@<TRIPOS>MOLECULE
C:\Users\Praveer\PycharmProjects\pdb_to_mol2_converter\data\pdb\tolu.pdb
   15    15     0     0     0
SMALL
GASTEIGER

@<TRIPOS>ATOM
      1 CG         -0.0030   -0.0050    0.0010 C.ar      1 TOL1        0.0000
      2 HG         -0.5430   -0.9400    0.0010 H         1 TOL1        0.0000
      3 CD1         1.3990   -0.0050    0.0000 C.ar      1 TOL1        0.0000
      4 HD1         1.9390   -0.9400   -0.0010 H         1 TOL1        0.0000
      5 CD2        -0.7040    1.2090    0.0000 C.ar      1 TOL1        0.0000
      6 HD2        -1.7840    1.2090   -0.0010 H         1 TOL1        0.0000
      7 CE1         2.0990    1.2100    0.0010 C.ar      1 TOL1        0.0000
      8 HE1         3.1780    1.2110   -0.0020 H         1 TOL1        0.0000
      9 CE2        -0.0020    2.4220    0.0010 C.ar      1 TOL1        0.0000
     10 HE2        -0.5400    3.3580   -0.0020 H         1 TOL1        0.0000
     11 CZ          1.4010    2.4270    0.0050 C.ar      1 TOL1        0.0000
     12 CT          2.1500    3.7240   -0.0070 C.3       1 TOL1        0.0000
     13 H11         2.3230    4.0240   -1.0620 H         1 TOL1        0.0000
     14 H12         3.1230    3.5980    0.5150 H         1 TOL1        0.0000
     15 H13         1.5540    4.5040    0.5150 H         1 TOL1        0.0000
@<TRIPOS>BOND
     1   13   12 1 
     2   12   11 1 
     3   12   14 1 
     4   12   15 1 
     5    8    7 1 
     6   10    9 1 
     7    4    3 1 
     8    6    5 1 
     9    3    1 ar
    10    3    7 ar
    11    5    1 ar
    12    5    9 ar
    13    1    2 1 
    14    7   11 ar
    15    9   11 ar
