@<TRIPOS>MOLECULE
C:\Users\Praveer\PycharmProjects\pdb_to_mol2_converter\data\pdb\tpa.pdb
   63    62     0     0     0
SMALL
GASTEIGER

@<TRIPOS>ATOM
      1 O1         -0.0220    0.0760   -0.0520 O.co2     1 TPA1        0.0000
      2 O2          1.9270   -0.9950   -0.0400 O.co2     1 TPA1        0.0000
      3 C1          1.2370    0.0560   -0.0400 C.2       1 TPA1        0.0000
      4 C2          1.9430    1.4120   -0.0250 C.3       1 TPA1        0.0000
      5 H2R         1.6000    1.9520    0.8800 H         1 TPA1        0.0000
      6 H2S         1.6020    1.9670   -0.9220 H         1 TPA1        0.0000
      7 C3          3.4850    1.3030   -0.0280 C.3       1 TPA1        0.0000
      8 H3R         3.8020    0.7160   -0.9200 H         1 TPA1        0.0000
      9 H3S         3.8110    0.7390    0.8740 H         1 TPA1        0.0000
     10 C4          4.1620    2.6790   -0.0550 C.3       1 TPA1        0.0000
     11 H4R         3.8390    3.2580    0.8380 H         1 TPA1        0.0000
     12 H4S         3.8110    3.2240   -0.9600 H         1 TPA1        0.0000
     13 C5          5.6940    2.5940   -0.0850 C.3       1 TPA1        0.0000
     14 H5R         5.9970    1.9990   -0.9750 H         1 TPA1        0.0000
     15 H5S         6.0510    2.0540    0.8190 H         1 TPA1        0.0000
     16 C6          6.3500    3.9800   -0.1530 C.3       1 TPA1        0.0000
     17 H6R         6.1040    4.5470    0.7710 H         1 TPA1        0.0000
     18 H6S         5.9120    4.5340   -1.0130 H         1 TPA1        0.0000
     19 C7          7.8730    3.9200   -0.3330 C.3       1 TPA1        0.0000
     20 H7R         8.0970    3.3370   -1.2550 H         1 TPA1        0.0000
     21 H7S         8.3170    3.3770    0.5310 H         1 TPA1        0.0000
     22 C8          8.4940    5.3240   -0.4500 C.3       1 TPA1        0.0000
     23 H8R         8.2630    5.8880    0.4810 H         1 TPA1        0.0000
     24 H8S         7.9720    5.8550   -1.2770 H         1 TPA1        0.0000
     25 C9          9.9890    5.2770   -0.6610 C.2       1 TPA1        0.0000
     26 H9R        10.5480    4.7960    0.1560 H         1 TPA1        0.0000
     27 C10        10.6770    5.7600   -1.7160 C.2       1 TPA1        0.0000
     28 H10R       11.7730    5.6490   -1.7200 H         1 TPA1        0.0000
     29 C11        10.1120    6.4460   -2.9380 C.3       1 TPA1        0.0000
     30 H11R        9.0410    6.1780   -3.0760 H         1 TPA1        0.0000
     31 H11S       10.6190    6.0470   -3.8440 H         1 TPA1        0.0000
     32 C12        10.2990    7.9460   -2.8860 C.2       1 TPA1        0.0000
     33 H12R       11.3450    8.2860   -2.9560 H         1 TPA1        0.0000
     34 C13         9.3250    8.8700   -2.7750 C.2       1 TPA1        0.0000
     35 H13R        9.6040    9.9350   -2.7420 H         1 TPA1        0.0000
     36 C14         7.8520    8.5600   -2.6660 C.3       1 TPA1        0.0000
     37 H14R        7.6730    8.0690   -1.6830 H         1 TPA1        0.0000
     38 H14S        7.5790    7.8040   -3.4370 H         1 TPA1        0.0000
     39 C15         6.9170    9.7400   -2.7900 C.2       1 TPA1        0.0000
     40 H15R        7.3720   10.7290   -2.9530 H         1 TPA1        0.0000
     41 C16         5.5780    9.6300   -2.7070 C.2       1 TPA1        0.0000
     42 H16R        4.9490   10.5300   -2.8030 H         1 TPA1        0.0000
     43 C17         4.8720    8.3140   -2.4880 C.3       1 TPA1        0.0000
     44 H17R        5.1420    7.9300   -1.4780 H         1 TPA1        0.0000
     45 H17S        5.2740    7.5720   -3.2120 H         1 TPA1        0.0000
     46 C18         3.3690    8.3240   -2.6170 C.2       1 TPA1        0.0000
     47 H18R        2.8960    9.2950   -2.8300 H         1 TPA1        0.0000
     48 C19         2.5960    7.2240   -2.5150 C.2       1 TPA1        0.0000
     49 H19R        1.5060    7.3250   -2.6280 H         1 TPA1        0.0000
     50 C20         3.0850    5.8210   -2.2290 C.3       1 TPA1        0.0000
     51 H20R        2.4500    5.3670   -1.4360 H         1 TPA1        0.0000
     52 H20S        4.1050    5.8390   -1.7900 H         1 TPA1        0.0000
     53 C21         3.0470    4.9350   -3.4530 C.2       1 TPA1        0.0000
     54 H21R        2.0380    4.5870   -3.7280 H         1 TPA1        0.0000
     55 C22         4.0890    4.5240   -4.2050 C.2       1 TPA1        0.0000
     56 H22R        3.8850    3.8650   -5.0630 H         1 TPA1        0.0000
     57 C23         5.5500    4.8510   -4.0120 C.3       1 TPA1        0.0000
     58 H23R        5.7280    5.4380   -3.0840 H         1 TPA1        0.0000
     59 H23S        5.9120    5.4770   -4.8570 H         1 TPA1        0.0000
     60 C24         6.3990    3.5740   -3.9400 C.3       1 TPA1        0.0000
     61 H24R        6.3410    3.0000   -4.8890 H         1 TPA1        0.0000
     62 H24S        6.0530    2.9190   -3.1110 H         1 TPA1        0.0000
     63 H24T        7.4630    3.8320   -3.7520 H         1 TPA1        0.0000
@<TRIPOS>BOND
     1   56   55 1 
     2   61   60 1 
     3   59   57 1 
     4   55   57 1 
     5   55   53 2 
     6   57   60 1 
     7   57   58 1 
     8   60   63 1 
     9   60   62 1 
    10   31   29 1 
    11   54   53 1 
    12   53   50 1 
    13   38   36 1 
    14   45   43 1 
    15   30   29 1 
    16   33   32 1 
    17   40   39 1 
    18   29   32 1 
    19   29   27 1 
    20   32   34 2 
    21   47   46 1 
    22   42   41 1 
    23   39   41 2 
    24   39   36 1 
    25   34   35 1 
    26   34   36 1 
    27   41   43 1 
    28   36   37 1 
    29   49   48 1 
    30   46   48 2 
    31   46   43 1 
    32   48   50 1 
    33   43   44 1 
    34   50   52 1 
    35   50   51 1 
    36   28   27 1 
    37   27   25 2 
    38   24   22 1 
    39   20   19 1 
    40   18   16 1 
    41   14   13 1 
    42   12   10 1 
    43    6    4 1 
    44    8    7 1 
    45   25   22 1 
    46   25   26 1 
    47   22   19 1 
    48   22   23 1 
    49   19   16 1 
    50   19   21 1 
    51   16   13 1 
    52   16   17 1 
    53   13   10 1 
    54   13   15 1 
    55   10    7 1 
    56   10   11 1 
    57    1    3 ar
    58    3    2 ar
    59    3    4 1 
    60    7    4 1 
    61    7    9 1 
    62    4    5 1 
