@<TRIPOS>MOLECULE
C:\Users\Praveer\PycharmProjects\pdb_to_mol2_converter\data\pdb\tpap.pdb
   64    63     0     0     0
SMALL
GASTEIGER

@<TRIPOS>ATOM
      1 H1          0.0880   -0.0040    0.2370 H         1 TPA1        0.0000
      2 O1          1.0420    0.0000    0.1870 O.3       1 TPA1        0.0000
      3 O2          0.6350    2.2020   -0.0180 O.2       1 TPA1        0.0000
      4 C1          1.4520    1.3050    0.0350 C.2       1 TPA1        0.0000
      5 C2          2.9680    1.4360   -0.0520 C.3       1 TPA1        0.0000
      6 H2R         3.3020    0.9640   -0.9990 H         1 TPA1        0.0000
      7 H2S         3.4210    0.8830    0.7980 H         1 TPA1        0.0000
      8 C3          3.4210    2.9110   -0.0160 C.3       1 TPA1        0.0000
      9 H3R         3.0570    3.3930    0.9210 H         1 TPA1        0.0000
     10 H3S         2.9760    3.4620   -0.8770 H         1 TPA1        0.0000
     11 C4          4.9480    3.0500   -0.0750 C.3       1 TPA1        0.0000
     12 H4R         5.3320    2.5360   -0.9840 H         1 TPA1        0.0000
     13 H4S         5.3930    2.5480    0.8140 H         1 TPA1        0.0000
     14 C5          5.4010    4.5150   -0.0990 C.3       1 TPA1        0.0000
     15 H5R         4.9990    5.0280    0.8020 H         1 TPA1        0.0000
     16 H5S         4.9730    5.0210   -0.9930 H         1 TPA1        0.0000
     17 C6          6.9270    4.6690   -0.1160 C.3       1 TPA1        0.0000
     18 H6R         7.3400    4.2020   -1.0380 H         1 TPA1        0.0000
     19 H6S         7.3530    4.1270    0.7570 H         1 TPA1        0.0000
     20 C7          7.3690    6.1380   -0.0440 C.3       1 TPA1        0.0000
     21 H7R         6.9290    6.5920    0.8740 H         1 TPA1        0.0000
     22 H7S         6.9610    6.6820   -0.9250 H         1 TPA1        0.0000
     23 C8          8.8990    6.2860    0.0040 C.3       1 TPA1        0.0000
     24 H8R         9.3310    5.8340   -0.9160 H         1 TPA1        0.0000
     25 H8S         9.2670    5.6760    0.8570 H         1 TPA1        0.0000
     26 C9          9.3290    7.7290    0.1190 C.2       1 TPA1        0.0000
     27 H9R         9.0130    8.3680   -0.7200 H         1 TPA1        0.0000
     28 C10        10.0430    8.2820    1.1210 C.2       1 TPA1        0.0000
     29 H10R       10.2800    9.3560    1.0640 H         1 TPA1        0.0000
     30 C11        10.5660    7.5860    2.3560 C.3       1 TPA1        0.0000
     31 H11R        9.9250    6.7150    2.6170 H         1 TPA1        0.0000
     32 H11S       10.4720    8.2770    3.2230 H         1 TPA1        0.0000
     33 C12        12.0130    7.1760    2.2070 C.2       1 TPA1        0.0000
     34 H12R       12.7110    8.0050    2.0060 H         1 TPA1        0.0000
     35 C13        12.5080    5.9260    2.3080 C.2       1 TPA1        0.0000
     36 H13R       13.5920    5.7790    2.1740 H         1 TPA1        0.0000
     37 C14        11.6950    4.6820    2.5780 C.3       1 TPA1        0.0000
     38 H14R       10.8370    4.6490    1.8730 H         1 TPA1        0.0000
     39 H14S       11.2510    4.7600    3.5960 H         1 TPA1        0.0000
     40 C15        12.4840    3.3940    2.5000 C.2       1 TPA1        0.0000
     41 H15R       13.5430    3.4710    2.7960 H         1 TPA1        0.0000
     42 C16        12.0080    2.1950    2.1100 C.2       1 TPA1        0.0000
     43 H16R       12.6960    1.3340    2.0900 H         1 TPA1        0.0000
     44 C17        10.5900    1.8920    1.6800 C.3       1 TPA1        0.0000
     45 H17R       10.5570    1.8890    0.5680 H         1 TPA1        0.0000
     46 H17S        9.9040    2.7040    2.0020 H         1 TPA1        0.0000
     47 C18        10.0830    0.5560    2.1740 C.2       1 TPA1        0.0000
     48 H18R       10.8550   -0.2090    2.3520 H         1 TPA1        0.0000
     49 C19         8.7960    0.2350    2.4190 C.2       1 TPA1        0.0000
     50 H19R        8.5660   -0.7810    2.7780 H         1 TPA1        0.0000
     51 C20         7.5890    1.1250    2.2310 C.3       1 TPA1        0.0000
     52 H20R        6.8580    0.6050    1.5730 H         1 TPA1        0.0000
     53 H20S        7.8550    2.0490    1.6760 H         1 TPA1        0.0000
     54 C21         6.9170    1.4520    3.5440 C.2       1 TPA1        0.0000
     55 H21R        6.3660    0.6090    3.9930 H         1 TPA1        0.0000
     56 C22         6.9190    2.6310    4.1990 C.2       1 TPA1        0.0000
     57 H22R        6.3690    2.7020    5.1500 H         1 TPA1        0.0000
     58 C23         7.6030    3.9120    3.7870 C.3       1 TPA1        0.0000
     59 H23R        8.1550    3.8030    2.8290 H         1 TPA1        0.0000
     60 H23S        8.3580    4.1980    4.5530 H         1 TPA1        0.0000
     61 C24         6.5900    5.0560    3.6390 C.3       1 TPA1        0.0000
     62 H24R        6.0760    5.2620    4.6020 H         1 TPA1        0.0000
     63 H24S        5.8210    4.8050    2.8770 H         1 TPA1        0.0000
     64 H24T        7.1050    5.9850    3.3150 H         1 TPA1        0.0000
@<TRIPOS>BOND
     1   18   17 1 
     2    6    5 1 
     3   16   14 1 
     4   12   11 1 
     5   22   20 1 
     6   24   23 1 
     7   10    8 1 
     8   27   26 1 
     9   17   14 1 
    10   17   20 1 
    11   17   19 1 
    12   14   11 1 
    13   14   15 1 
    14   11    8 1 
    15   11   13 1 
    16    5    8 1 
    17    5    4 1 
    18    5    7 1 
    19   20   23 1 
    20   20   21 1 
    21    3    4 2 
    22    8    9 1 
    23   23   26 1 
    24   23   25 1 
    25    4    2 1 
    26   26   28 2 
    27    2    1 1 
    28   45   44 1 
    29   29   28 1 
    30   28   30 1 
    31   52   51 1 
    32   53   51 1 
    33   44   46 1 
    34   44   42 1 
    35   44   47 1 
    36   38   37 1 
    37   34   33 1 
    38   43   42 1 
    39   42   40 2 
    40   36   35 1 
    41   47   48 1 
    42   47   49 2 
    43   33   35 2 
    44   33   30 1 
    45   51   49 1 
    46   51   54 1 
    47   35   37 1 
    48   30   31 1 
    49   30   32 1 
    50   49   50 1 
    51   40   37 1 
    52   40   41 1 
    53   37   39 1 
    54   59   58 1 
    55   63   61 1 
    56   64   61 1 
    57   54   55 1 
    58   54   56 2 
    59   61   58 1 
    60   61   62 1 
    61   58   56 1 
    62   58   60 1 
    63   56   57 1 
