@<TRIPOS>MOLECULE
C:\Users\Praveer\PycharmProjects\pdb_to_mol2_converter\data\pdb\tpc.pdb
   67    66     0     0     0
SMALL
GASTEIGER

@<TRIPOS>ATOM
      1 N           6.0930    6.0520    0.0050 N.4       1 TPC1        0.0000
      2 C13         5.7170    7.5000   -0.0040 C.3       1 TPC1        0.0000
      3 H13A        5.1190    7.7310   -0.8790 H         1 TPC1        0.0000
      4 H13B        6.5890    8.1380   -0.0080 H         1 TPC1        0.0000
      5 H13C        5.1220    7.7410    0.8710 H         1 TPC1        0.0000
      6 C14         6.8960    5.7110   -1.2180 C.3       1 TPC1        0.0000
      7 H14A        7.8270    6.2590   -1.2540 H         1 TPC1        0.0000
      8 H14B        6.3340    5.9120   -2.1230 H         1 TPC1        0.0000
      9 H14C        7.1270    4.6490   -1.2230 H         1 TPC1        0.0000
     10 C15         6.9100    5.7340    1.2260 C.3       1 TPC1        0.0000
     11 H15A        6.3520    5.9390    2.1320 H         1 TPC1        0.0000
     12 H15B        7.8370    6.2870    1.2490 H         1 TPC1        0.0000
     13 H15C        7.1480    4.6730    1.2430 H         1 TPC1        0.0000
     14 C12         4.8290    5.2170    0.0240 C.3       1 TPC1        0.0000
     15 H12A        4.2030    5.4360   -0.8350 H         1 TPC1        0.0000
     16 H12B        4.2250    5.4520    0.8960 H         1 TPC1        0.0000
     17 C11         5.0420    3.7110    0.0430 C.3       1 TPC1        0.0000
     18 H11A        5.6790    3.4110    0.9070 H         1 TPC1        0.0000
     19 H11B        5.5280    3.3770   -0.9060 H         1 TPC1        0.0000
     20 P           3.6940    1.5590    0.2010 P.3       1 TPC1        0.0000
     21 O13         4.1400    1.0860   -1.1270 O.2       1 TPC1        0.0000
     22 O14         4.4570    1.1060    1.3820 O.3       1 TPC1        0.0000
     23 O11         2.1450    1.2810    0.4040 O.3       1 TPC1        0.0000
     24 O12         3.7430    3.1530    0.1710 O.3       1 TPC1        0.0000
     25 C1          1.5720    0.1580   -0.2660 C.3       1 TPC1        0.0000
     26 HA          1.8590   -0.7880    0.2450 H         1 TPC1        0.0000
     27 HB          1.8970    0.1010   -1.3340 H         1 TPC1        0.0000
     28 C2          0.0460    0.2930   -0.2480 C.3       1 TPC1        0.0000
     29 HS         -0.2310    1.3250   -0.5530 H         1 TPC1        0.0000
     30 HR         -0.3140    0.1370    0.7920 H         1 TPC1        0.0000
     31 C3         -0.6150   -0.7160   -1.1990 C.3       1 TPC1        0.0000
     32 HX         -0.2870   -1.7430   -0.9260 H         1 TPC1        0.0000
     33 HY         -0.2440   -0.5100   -2.2300 H         1 TPC1        0.0000
     34 C31        -2.1470   -0.6500   -1.1890 C.3       1 TPC1        0.0000
     35 H1X        -2.4660    0.4160   -1.2450 H         1 TPC1        0.0000
     36 H1Y        -2.5170   -1.0660   -0.2250 H         1 TPC1        0.0000
     37 C32        -2.7660   -1.4160   -2.3660 C.3       1 TPC1        0.0000
     38 H2X        -2.4110   -2.4710   -2.3410 H         1 TPC1        0.0000
     39 H2Y        -2.4010   -0.9600   -3.3150 H         1 TPC1        0.0000
     40 C33        -4.3000   -1.4020   -2.3720 C.3       1 TPC1        0.0000
     41 H3X        -4.6560   -0.3460   -2.3540 H         1 TPC1        0.0000
     42 H3Y        -4.6750   -1.9000   -1.4500 H         1 TPC1        0.0000
     43 C34        -4.8820   -2.1070   -3.6060 C.3       1 TPC1        0.0000
     44 H4X        -4.5170   -3.1580   -3.6280 H         1 TPC1        0.0000
     45 H4Y        -4.5050   -1.5990   -4.5220 H         1 TPC1        0.0000
     46 C35        -6.4160   -2.1050   -3.6270 C.3       1 TPC1        0.0000
     47 H5X        -6.7800   -1.0530   -3.6060 H         1 TPC1        0.0000
     48 H5Y        -6.7920   -2.6120   -2.7100 H         1 TPC1        0.0000
     49 C36        -7.0060   -2.8080   -4.8580 C.3       1 TPC1        0.0000
     50 H6X        -6.6500   -3.8620   -4.8880 H         1 TPC1        0.0000
     51 H6Y        -6.6450   -2.3030   -5.7820 H         1 TPC1        0.0000
     52 C37        -8.5390   -2.7980   -4.8460 C.3       1 TPC1        0.0000
     53 H7X        -8.8980   -1.7440   -4.8200 H         1 TPC1        0.0000
     54 H7Y        -8.9010   -3.3010   -3.9210 H         1 TPC1        0.0000
     55 C38        -9.1410   -3.5010   -6.0670 C.3       1 TPC1        0.0000
     56 H8X        -8.7840   -4.5550   -6.0940 H         1 TPC1        0.0000
     57 H8Y        -8.7830   -2.9980   -6.9930 H         1 TPC1        0.0000
     58 C39       -10.6740   -3.4920   -6.0510 C.3       1 TPC1        0.0000
     59 H9X       -11.0340   -2.4390   -6.0240 H         1 TPC1        0.0000
     60 H9Y       -11.0340   -3.9950   -5.1250 H         1 TPC1        0.0000
     61 C310      -11.2730   -4.1970   -7.2720 C.3       1 TPC1        0.0000
     62 H10X      -10.9030   -5.2480   -7.2960 H         1 TPC1        0.0000
     63 H10Y      -10.9030   -3.6930   -8.1940 H         1 TPC1        0.0000
     64 C311      -12.8020   -4.1970   -7.2730 C.3       1 TPC1        0.0000
     65 H11X      -13.1890   -3.1560   -7.2710 H         1 TPC1        0.0000
     66 H11Y      -13.1880   -4.7170   -6.3690 H         1 TPC1        0.0000
     67 H11Z      -13.1910   -4.7180   -8.1740 H         1 TPC1        0.0000
@<TRIPOS>BOND
     1   63   61 1 
     2   67   64 1 
     3   62   61 1 
     4   64   61 1 
     5   64   65 1 
     6   64   66 1 
     7   61   58 1 
     8   57   55 1 
     9   56   55 1 
    10   55   58 1 
    11   55   52 1 
    12   58   59 1 
    13   58   60 1 
    14   51   49 1 
    15   50   49 1 
    16   49   52 1 
    17   49   46 1 
    18   52   53 1 
    19   52   54 1 
    20   45   43 1 
    21   44   43 1 
    22   46   43 1 
    23   46   47 1 
    24   46   48 1 
    25   43   40 1 
    26   39   37 1 
    27   40   37 1 
    28   40   41 1 
    29   40   42 1 
    30   37   38 1 
    31   37   34 1 
    32   33   31 1 
    33    8    6 1 
    34   27   25 1 
    35    7    6 1 
    36   35   34 1 
    37    9    6 1 
    38    6    1 1 
    39   31   34 1 
    40   31   32 1 
    41   31   28 1 
    42   34   36 1 
    43   21   20 2 
    44   19   17 1 
    45    3    2 1 
    46   15   14 1 
    47   29   28 1 
    48   25   28 1 
    49   25   26 1 
    50   25   23 1 
    51   28   30 1 
    52    4    2 1 
    53    2    1 1 
    54    2    5 1 
    55    1   14 1 
    56    1   10 1 
    57   14   17 1 
    58   14   16 1 
    59   17   24 1 
    60   17   18 1 
    61   24   20 1 
    62   20   23 1 
    63   20   22 1 
    64   10   13 1 
    65   10   12 1 
    66   10   11 1 
