@<TRIPOS>MOLECULE
C:\Users\Praveer\PycharmProjects\pdb_to_mol2_converter\data\pdb\tphc.pdb
   22    22     0     0     0
SMALL
GASTEIGER

@<TRIPOS>ATOM
      1 O4'         1.3340    0.1370   -0.3570 O.3       1 TPH1        0.0000
      2 C1'         1.8350    1.3410    0.2320 C.3       1 TPH1        0.0000
      3 H11'        2.5210    1.8320   -0.4740 H         1 TPH1        0.0000
      4 H12'        2.4090    1.0590    1.1320 H         1 TPH1        0.0000
      5 C4'        -0.0620   -0.0020   -0.0350 C.3       1 TPH1        0.0000
      6 H41'       -0.2570   -1.0190    0.3320 H         1 TPH1        0.0000
      7 H42'       -0.6220    0.1250   -0.9740 H         1 TPH1        0.0000
      8 C2'         0.6030    2.1670    0.5880 C.3       1 TPH1        0.0000
      9 H21'        0.2490    2.7130   -0.3020 H         1 TPH1        0.0000
     10 H22'        0.7890    2.9290    1.3560 H         1 TPH1        0.0000
     11 C3'        -0.4220    1.1040    0.9580 C.3       1 TPH1        0.0000
     12 H31'       -1.4610    1.4440    0.8050 H         1 TPH1        0.0000
     13 N1         -0.2380    0.6080    2.3060 N.3       1 TPH1        0.0000
     14 H1          0.7430    0.3550    2.3870 H         1 TPH1        0.0000
     15 P1         -0.6540    1.6720    3.5760 P.3       1 TPH1        0.0000
     16 O3         -1.5740    2.7520    3.0610 O.2       1 TPH1        0.0000
     17 O4         -1.0120    0.8720    4.7920 O.3       1 TPH1        0.0000
     18 O2          0.8220    2.3180    3.8130 O.3       1 TPH1        0.0000
     19 C5'         1.7880    1.5640    4.5510 C.3       1 TPH1        0.0000
     20 H51'        2.0450    0.6160    4.0300 H         1 TPH1        0.0000
     21 H52'        1.4070    1.3230    5.5700 H         1 TPH1        0.0000
     22 H53'        2.7160    2.1640    4.6620 H         1 TPH1        0.0000
@<TRIPOS>BOND
     1    7    5 1 
     2    3    2 1 
     3    1    5 1 
     4    1    2 1 
     5    9    8 1 
     6    5    6 1 
     7    5   11 1 
     8    2    8 1 
     9    2    4 1 
    10    8   11 1 
    11    8   10 1 
    12   12   11 1 
    13   11   13 1 
    14   13   14 1 
    15   13   15 1 
    16   16   15 2 
    17   15   18 1 
    18   15   17 1 
    19   18   19 1 
    20   20   19 1 
    21   19   22 1 
    22   19   21 1 
