@<TRIPOS>MOLECULE
C:\Users\Praveer\PycharmProjects\pdb_to_mol2_converter\data\pdb\tpt.pdb
   63    62     0     0     0
SMALL
GASTEIGER

@<TRIPOS>ATOM
      1 O1         -0.1540    0.0710    0.2110 O.co2     1 TPT1        0.0000
      2 O2          1.7470   -1.0510   -0.0440 O.co2     1 TPT1        0.0000
      3 C1          1.0930    0.0190    0.0450 C.2       1 TPT1        0.0000
      4 C2          1.8300    1.3570   -0.0360 C.3       1 TPT1        0.0000
      5 H2R         1.4510    1.9790    0.8020 H         1 TPT1        0.0000
      6 H2S         1.5480    1.8400   -0.9920 H         1 TPT1        0.0000
      7 C3          3.3660    1.2270    0.0850 C.3       1 TPT1        0.0000
      8 H3R         3.7630    0.6320   -0.7650 H         1 TPT1        0.0000
      9 H3S         3.5910    0.6600    1.0170 H         1 TPT1        0.0000
     10 C4          4.0690    2.5900    0.1650 C.3       1 TPT1        0.0000
     11 H4R         3.5450    3.1940    0.9400 H         1 TPT1        0.0000
     12 H4S         3.9550    3.1200   -0.8050 H         1 TPT1        0.0000
     13 C5          5.5570    2.4590    0.5430 C.3       1 TPT1        0.0000
     14 H5R         6.0880    1.9380   -0.2830 H         1 TPT1        0.0000
     15 H5S         5.6100    1.7860    1.4300 H         1 TPT1        0.0000
     16 C6          6.1940    3.8000    0.8230 C.2       1 TPT1        0.0000
     17 H6R         6.2060    4.4950   -0.0320 H         1 TPT1        0.0000
     18 C7          6.7070    4.2010    1.9990 C.2       1 TPT1        0.0000
     19 H7R         7.1230    5.2200    2.0760 H         1 TPT1        0.0000
     20 C8          6.7470    3.3670    3.2600 C.3       1 TPT1        0.0000
     21 H8R         7.1440    2.3550    3.0190 H         1 TPT1        0.0000
     22 H8S         5.7030    3.2030    3.6080 H         1 TPT1        0.0000
     23 C9          7.5850    3.9570    4.3680 C.2       1 TPT1        0.0000
     24 H9R         8.3410    4.6950    4.0590 H         1 TPT1        0.0000
     25 C10         7.5000    3.6430    5.6790 C.2       1 TPT1        0.0000
     26 H10R        8.1790    4.1520    6.3820 H         1 TPT1        0.0000
     27 C11         6.5550    2.6530    6.3130 C.3       1 TPT1        0.0000
     28 H11R        5.7810    2.3160    5.5900 H         1 TPT1        0.0000
     29 H11S        5.9820    3.1620    7.1190 H         1 TPT1        0.0000
     30 C12         7.2890    1.4710    6.9020 C.2       1 TPT1        0.0000
     31 H12R        7.9390    1.7120    7.7580 H         1 TPT1        0.0000
     32 C13         7.2040    0.1840    6.5070 C.2       1 TPT1        0.0000
     33 H13R        7.8070   -0.5710    7.0360 H         1 TPT1        0.0000
     34 C14         6.3880   -0.3600    5.3580 C.3       1 TPT1        0.0000
     35 H14R        7.0480   -0.9930    4.7250 H         1 TPT1        0.0000
     36 H14S        6.0590    0.4650    4.6900 H         1 TPT1        0.0000
     37 C15         5.2000   -1.1810    5.7980 C.2       1 TPT1        0.0000
     38 H15R        5.2320   -1.5690    6.8280 H         1 TPT1        0.0000
     39 C16         4.1250   -1.4690    5.0350 C.2       1 TPT1        0.0000
     40 H16R        3.3160   -2.0820    5.4640 H         1 TPT1        0.0000
     41 C17         3.9050   -1.0250    3.6070 C.3       1 TPT1        0.0000
     42 H17R        4.2590   -1.8300    2.9250 H         1 TPT1        0.0000
     43 H17S        4.5310   -0.1400    3.3570 H         1 TPT1        0.0000
     44 C18         2.4750   -0.7070    3.2390 C.2       1 TPT1        0.0000
     45 H18R        2.0230   -1.3920    2.4990 H         1 TPT1        0.0000
     46 C19         1.7530    0.3600    3.6310 C.2       1 TPT1        0.0000
     47 H19R        0.7380    0.4770    3.2130 H         1 TPT1        0.0000
     48 C20         2.2100    1.4670    4.5520 C.3       1 TPT1        0.0000
     49 H20R        3.1590    1.2030    5.0700 H         1 TPT1        0.0000
     50 H20S        1.4480    1.6510    5.3390 H         1 TPT1        0.0000
     51 C21         2.4510    2.7670    3.7630 C.3       1 TPT1        0.0000
     52 H21R        1.5110    3.0920    3.2620 H         1 TPT1        0.0000
     53 H21S        3.2030    2.5570    2.9680 H         1 TPT1        0.0000
     54 C22         2.9900    3.9120    4.6320 C.3       1 TPT1        0.0000
     55 H22R        3.9220    3.5660    5.1310 H         1 TPT1        0.0000
     56 H22S        2.2520    4.1600    5.4260 H         1 TPT1        0.0000
     57 C23         3.3100    5.1660    3.8090 C.3       1 TPT1        0.0000
     58 H23R        2.3680    5.5530    3.3580 H         1 TPT1        0.0000
     59 H23S        3.9810    4.8710    2.9700 H         1 TPT1        0.0000
     60 C24         3.9870    6.2740    4.6200 C.3       1 TPT1        0.0000
     61 H24R        4.9370    5.9000    5.0590 H         1 TPT1        0.0000
     62 H24S        3.3260    6.6120    5.4460 H         1 TPT1        0.0000
     63 H24T        4.2190    7.1460    3.9720 H         1 TPT1        0.0000
@<TRIPOS>BOND
     1    6    4 1 
     2   12   10 1 
     3    8    7 1 
     4   14   13 1 
     5    2    3 ar
     6    4    3 1 
     7    4    7 1 
     8    4    5 1 
     9   17   16 1 
    10    3    1 ar
    11    7   10 1 
    12    7    9 1 
    13   10   13 1 
    14   10   11 1 
    15   13   16 1 
    16   13   15 1 
    17   16   18 2 
    18   18   19 1 
    19   18   20 1 
    20   45   44 1 
    21   42   41 1 
    22   53   51 1 
    23   59   57 1 
    24   21   20 1 
    25   47   46 1 
    26   44   41 1 
    27   44   46 2 
    28   20   22 1 
    29   20   23 1 
    30   52   51 1 
    31   43   41 1 
    32   58   57 1 
    33   41   39 1 
    34   46   48 1 
    35   51   48 1 
    36   51   54 1 
    37   57   60 1 
    38   57   54 1 
    39   63   60 1 
    40   24   23 1 
    41   23   25 2 
    42   48   49 1 
    43   48   50 1 
    44   60   61 1 
    45   60   62 1 
    46   54   55 1 
    47   54   56 1 
    48   36   34 1 
    49   35   34 1 
    50   39   40 1 
    51   39   37 2 
    52   34   37 1 
    53   34   32 1 
    54   28   27 1 
    55   25   27 1 
    56   25   26 1 
    57   37   38 1 
    58   27   30 1 
    59   27   29 1 
    60   32   30 2 
    61   32   33 1 
    62   30   31 1 
