@<TRIPOS>MOLECULE
C:\Users\Praveer\PycharmProjects\pdb_to_mol2_converter\data\pdb\tptp.pdb
   64    63     0     0     0
SMALL
GASTEIGER

@<TRIPOS>ATOM
      1 H1         -0.0350   -0.0470   -0.2000 H         1 TPT1        0.0000
      2 O1          0.9190   -0.0260   -0.2420 O.3       1 TPT1        0.0000
      3 O2          0.4600    2.1530    0.0600 O.2       1 TPT1        0.0000
      4 C1          1.3030    1.2840   -0.0840 C.2       1 TPT1        0.0000
      5 C2          2.8160    1.4580   -0.1130 C.3       1 TPT1        0.0000
      6 H2R         3.1760    1.1310   -1.1120 H         1 TPT1        0.0000
      7 H2S         3.2620    0.7980    0.6590 H         1 TPT1        0.0000
      8 C3          3.2330    2.9220    0.1410 C.3       1 TPT1        0.0000
      9 H3R         2.8920    3.2460    1.1510 H         1 TPT1        0.0000
     10 H3S         2.7370    3.5830   -0.6080 H         1 TPT1        0.0000
     11 C4          4.7510    3.1290    0.0370 C.3       1 TPT1        0.0000
     12 H4R         5.0860    2.7700   -0.9610 H         1 TPT1        0.0000
     13 H4S         5.2620    2.5090    0.8070 H         1 TPT1        0.0000
     14 C5          5.1500    4.6070    0.2030 C.3       1 TPT1        0.0000
     15 H5R         4.9120    4.9240    1.2430 H         1 TPT1        0.0000
     16 H5S         4.5000    5.2090   -0.4720 H         1 TPT1        0.0000
     17 C6          6.6150    4.8250   -0.0900 C.2       1 TPT1        0.0000
     18 H6R         7.3090    4.2260    0.5200 H         1 TPT1        0.0000
     19 C7          7.1180    5.6510   -1.0260 C.2       1 TPT1        0.0000
     20 H7R         8.2120    5.7040   -1.1530 H         1 TPT1        0.0000
     21 C8          6.2970    6.5310   -1.9390 C.3       1 TPT1        0.0000
     22 H8R         5.5350    7.0780   -1.3390 H         1 TPT1        0.0000
     23 H8S         5.7210    5.8820   -2.6350 H         1 TPT1        0.0000
     24 C9          7.1170    7.5460   -2.7010 C.2       1 TPT1        0.0000
     25 H9R         8.0080    7.9240   -2.1740 H         1 TPT1        0.0000
     26 C10         6.8430    8.0360   -3.9270 C.2       1 TPT1        0.0000
     27 H10R        7.5290    8.7800   -4.3600 H         1 TPT1        0.0000
     28 C11         5.6650    7.6770   -4.8020 C.3       1 TPT1        0.0000
     29 H11R        5.2990    6.6550   -4.5710 H         1 TPT1        0.0000
     30 H11S        5.9980    7.6240   -5.8620 H         1 TPT1        0.0000
     31 C12         4.5610    8.7010   -4.6760 C.2       1 TPT1        0.0000
     32 H12R        4.8150    9.6950   -5.0750 H         1 TPT1        0.0000
     33 C13         3.3320    8.5250   -4.1470 C.2       1 TPT1        0.0000
     34 H13R        2.6490    9.3880   -4.1250 H         1 TPT1        0.0000
     35 C14         2.7600    7.2630   -3.5400 C.3       1 TPT1        0.0000
     36 H14R        2.5780    7.4430   -2.4570 H         1 TPT1        0.0000
     37 H14S        3.4870    6.4240   -3.5810 H         1 TPT1        0.0000
     38 C15         1.4650    6.8450   -4.1950 C.2       1 TPT1        0.0000
     39 H15R        1.0580    7.5330   -4.9540 H         1 TPT1        0.0000
     40 C16         0.7880    5.7110   -3.9330 C.2       1 TPT1        0.0000
     41 H16R       -0.1460    5.5170   -4.4850 H         1 TPT1        0.0000
     42 C17         1.1870    4.6400   -2.9440 C.3       1 TPT1        0.0000
     43 H17R        0.5710    4.7390   -2.0230 H         1 TPT1        0.0000
     44 H17S        2.2390    4.7770   -2.6070 H         1 TPT1        0.0000
     45 C18         1.0090    3.2480   -3.5030 C.2       1 TPT1        0.0000
     46 H18R        0.0590    2.7590   -3.2360 H         1 TPT1        0.0000
     47 C19         1.8960    2.5810   -4.2680 C.2       1 TPT1        0.0000
     48 H19R        1.6490    1.5640   -4.6090 H         1 TPT1        0.0000
     49 C20         3.2430    3.0960   -4.7140 C.3       1 TPT1        0.0000
     50 H20R        3.3590    4.1850   -4.5100 H         1 TPT1        0.0000
     51 H20S        3.3620    2.9670   -5.8130 H         1 TPT1        0.0000
     52 C21         4.3800    2.3510   -3.9940 C.3       1 TPT1        0.0000
     53 H21R        4.3540    1.2710   -4.2640 H         1 TPT1        0.0000
     54 H21S        4.2260    2.4300   -2.8960 H         1 TPT1        0.0000
     55 C22         5.7690    2.9150   -4.3260 C.3       1 TPT1        0.0000
     56 H22R        5.8040    3.9880   -4.0310 H         1 TPT1        0.0000
     57 H22S        5.9350    2.8610   -5.4250 H         1 TPT1        0.0000
     58 C23         6.8960    2.1630   -3.6060 C.3       1 TPT1        0.0000
     59 H23R        6.8700    1.0940   -3.9200 H         1 TPT1        0.0000
     60 H23S        6.7040    2.1930   -2.5090 H         1 TPT1        0.0000
     61 C24         8.2860    2.7390   -3.8840 C.3       1 TPT1        0.0000
     62 H24R        8.3400    3.7970   -3.5470 H         1 TPT1        0.0000
     63 H24S        8.5110    2.7060   -4.9720 H         1 TPT1        0.0000
     64 H24T        9.0660    2.1580   -3.3460 H         1 TPT1        0.0000
@<TRIPOS>BOND
     1   30   28 1 
     2   51   49 1 
     3   57   55 1 
     4   32   31 1 
     5   63   61 1 
     6   39   38 1 
     7   28   31 1 
     8   28   29 1 
     9   28   26 1 
    10   49   50 1 
    11   49   47 1 
    12   49   52 1 
    13   31   33 2 
    14   48   47 1 
    15   41   40 1 
    16   27   26 1 
    17   55   56 1 
    18   55   52 1 
    19   55   58 1 
    20   47   45 2 
    21   53   52 1 
    22   38   40 2 
    23   38   35 1 
    24   33   34 1 
    25   33   35 1 
    26   52   54 1 
    27   40   42 1 
    28   26   24 2 
    29   59   58 1 
    30   61   58 1 
    31   61   62 1 
    32   61   64 1 
    33   58   60 1 
    34   37   35 1 
    35   35   36 1 
    36   45   46 1 
    37   45   42 1 
    38   42   44 1 
    39   42   43 1 
    40   24   25 1 
    41   24   21 1 
    42   23   21 1 
    43   21   22 1 
    44   21   19 1 
    45   20   19 1 
    46    6    5 1 
    47   19   17 2 
    48   12   11 1 
    49   10    8 1 
    50   16   14 1 
    51    2    1 1 
    52    2    4 1 
    53    5    4 1 
    54    5    8 1 
    55    5    7 1 
    56   17   14 1 
    57   17   18 1 
    58    4    3 2 
    59   11    8 1 
    60   11   14 1 
    61   11   13 1 
    62    8    9 1 
    63   14   15 1 
