@<TRIPOS>MOLECULE
C:\Users\Praveer\PycharmProjects\pdb_to_mol2_converter\data\pdb\tri.pdb
   70    69     0     0     0
SMALL
GASTEIGER

@<TRIPOS>ATOM
      1 O1         -0.0090    0.0100    0.0190 O.co2     1 TRI1        0.0000
      2 O2          1.9550   -1.0340    0.0230 O.co2     1 TRI1        0.0000
      3 C1          1.2500    0.0070    0.0170 C.2       1 TRI1        0.0000
      4 C2          1.9390    1.3730    0.0060 C.3       1 TRI1        0.0000
      5 H2R         1.5910    1.9220    0.9030 H         1 TRI1        0.0000
      6 H2S         1.5870    1.9090   -0.8980 H         1 TRI1        0.0000
      7 C3          3.4810    1.2810    0.0020 C.3       1 TRI1        0.0000
      8 H3R         3.8050    0.7000   -0.8900 H         1 TRI1        0.0000
      9 H3S         3.8110    0.7160    0.9030 H         1 TRI1        0.0000
     10 C4          4.1510    2.6610   -0.0130 C.3       1 TRI1        0.0000
     11 H4R         3.8170    3.2310    0.8830 H         1 TRI1        0.0000
     12 H4S         3.8060    3.2140   -0.9150 H         1 TRI1        0.0000
     13 C5          5.6830    2.5750   -0.0220 C.3       1 TRI1        0.0000
     14 H5R         6.0020    1.9920   -0.9150 H         1 TRI1        0.0000
     15 H5S         6.0170    2.0180    0.8820 H         1 TRI1        0.0000
     16 C6          6.3570    3.9540   -0.0490 C.3       1 TRI1        0.0000
     17 H6R         6.0370    4.5320    0.8460 H         1 TRI1        0.0000
     18 H6S         6.0100    4.5060   -0.9510 H         1 TRI1        0.0000
     19 C7          7.8890    3.8620   -0.0730 C.3       1 TRI1        0.0000
     20 H7R         8.2010    3.2710   -0.9630 H         1 TRI1        0.0000
     21 H7S         8.2340    3.3160    0.8340 H         1 TRI1        0.0000
     22 C8          8.5650    5.2390   -0.1220 C.3       1 TRI1        0.0000
     23 H8R         8.2610    5.8280    0.7720 H         1 TRI1        0.0000
     24 H8S         8.2090    5.7850   -1.0240 H         1 TRI1        0.0000
     25 C9         10.0970    5.1420   -0.1660 C.3       1 TRI1        0.0000
     26 H9R        10.3950    4.5400   -1.0540 H         1 TRI1        0.0000
     27 H9S        10.4550    4.6070    0.7420 H         1 TRI1        0.0000
     28 C10        10.7770    6.5160   -0.2440 C.3       1 TRI1        0.0000
     29 H10R       10.4910    7.1180    0.6480 H         1 TRI1        0.0000
     30 H10S       10.4090    7.0520   -1.1470 H         1 TRI1        0.0000
     31 C11        12.3070    6.4120   -0.3130 C.3       1 TRI1        0.0000
     32 H11R       12.5890    5.7970   -1.1970 H         1 TRI1        0.0000
     33 H11S       12.6790    5.8890    0.5960 H         1 TRI1        0.0000
     34 C12        12.9910    7.7820   -0.4200 C.3       1 TRI1        0.0000
     35 H12R       12.7220    8.3970    0.4680 H         1 TRI1        0.0000
     36 H12S       12.6100    8.3080   -1.3240 H         1 TRI1        0.0000
     37 C13        14.5190    7.6710   -0.5140 C.3       1 TRI1        0.0000
     38 H13R       14.7830    7.0440   -1.3950 H         1 TRI1        0.0000
     39 H13S       14.9040    7.1570    0.3950 H         1 TRI1        0.0000
     40 C14        15.2070    9.0370   -0.6490 C.3       1 TRI1        0.0000
     41 H14R       14.9540    9.6630    0.2360 H         1 TRI1        0.0000
     42 H14S       14.8140    9.5530   -1.5530 H         1 TRI1        0.0000
     43 C15        16.7330    8.9180   -0.7630 C.3       1 TRI1        0.0000
     44 H15R       16.9820    8.2820   -1.6420 H         1 TRI1        0.0000
     45 H15S       17.1290    8.4100    0.1450 H         1 TRI1        0.0000
     46 C16        17.4250   10.2790   -0.9200 C.3       1 TRI1        0.0000
     47 H16R       17.1850   10.9150   -0.0390 H         1 TRI1        0.0000
     48 H16S       17.0240   10.7890   -1.8250 H         1 TRI1        0.0000
     49 C17        18.9490   10.1540   -1.0500 C.3       1 TRI1        0.0000
     50 H17R       19.1870    9.5120   -1.9280 H         1 TRI1        0.0000
     51 H17S       19.3530    9.6500   -0.1430 H         1 TRI1        0.0000
     52 C18        19.6440   11.5120   -1.2210 C.3       1 TRI1        0.0000
     53 H18R       19.4110   12.1550   -0.3430 H         1 TRI1        0.0000
     54 H18S       19.2380   12.0170   -2.1270 H         1 TRI1        0.0000
     55 C19        21.1670   11.3830   -1.3600 C.3       1 TRI1        0.0000
     56 H19R       21.3990   10.7370   -2.2370 H         1 TRI1        0.0000
     57 H19S       21.5740   10.8810   -0.4540 H         1 TRI1        0.0000
     58 C20        21.8640   12.7390   -1.5400 C.3       1 TRI1        0.0000
     59 H20R       21.6340   13.3850   -0.6630 H         1 TRI1        0.0000
     60 H20S       21.4570   13.2400   -2.4460 H         1 TRI1        0.0000
     61 C21        23.3870   12.6070   -1.6810 C.3       1 TRI1        0.0000
     62 H21R       23.6170   11.9590   -2.5570 H         1 TRI1        0.0000
     63 H21S       23.7950   12.1060   -0.7750 H         1 TRI1        0.0000
     64 C22        24.0850   13.9600   -1.8630 C.3       1 TRI1        0.0000
     65 H22R       23.8470   14.6070   -0.9880 H         1 TRI1        0.0000
     66 H22S       23.6690   14.4590   -2.7690 H         1 TRI1        0.0000
     67 C23        25.6050   13.8450   -2.0050 C.3       1 TRI1        0.0000
     68 H23R       25.8670   13.2230   -2.8880 H         1 TRI1        0.0000
     69 H23S       26.0450   13.3720   -1.1010 H         1 TRI1        0.0000
     70 H23T       26.0630   14.8500   -2.1340 H         1 TRI1        0.0000
@<TRIPOS>BOND
     1   68   67 1 
     2   66   64 1 
     3   62   61 1 
     4   60   58 1 
     5   56   55 1 
     6   70   67 1 
     7   54   52 1 
     8   67   64 1 
     9   67   69 1 
    10   50   49 1 
    11   64   61 1 
    12   64   65 1 
    13   48   46 1 
    14   61   58 1 
    15   61   63 1 
    16   44   43 1 
    17   42   40 1 
    18   58   55 1 
    19   58   59 1 
    20   38   37 1 
    21   55   52 1 
    22   55   57 1 
    23   36   34 1 
    24   52   49 1 
    25   52   53 1 
    26   32   31 1 
    27   30   28 1 
    28   26   25 1 
    29   49   46 1 
    30   49   51 1 
    31   24   22 1 
    32   20   19 1 
    33   18   16 1 
    34   46   43 1 
    35   46   47 1 
    36   12   10 1 
    37   14   13 1 
    38    6    4 1 
    39    8    7 1 
    40   43   40 1 
    41   43   45 1 
    42   40   37 1 
    43   40   41 1 
    44   37   34 1 
    45   37   39 1 
    46   34   31 1 
    47   34   35 1 
    48   31   28 1 
    49   31   33 1 
    50   28   25 1 
    51   28   29 1 
    52   25   22 1 
    53   25   27 1 
    54   22   19 1 
    55   22   23 1 
    56   19   16 1 
    57   19   21 1 
    58   16   13 1 
    59   16   17 1 
    60   13   10 1 
    61   13   15 1 
    62   10    7 1 
    63   10   11 1 
    64    7    4 1 
    65    7    9 1 
    66    4    3 1 
    67    4    5 1 
    68    3    1 ar
    69    3    2 ar
