@<TRIPOS>MOLECULE
C:\Users\Praveer\PycharmProjects\pdb_to_mol2_converter\data\pdb\tria.pdb
    9     9     0     0     0
SMALL
GASTEIGER

@<TRIPOS>ATOM
      1 N1         -0.0450    0.2020    0.0000 N.2       1 TRI1        0.0000
      2 C2          1.2950    0.0460   -0.0000 C.2       1 TRI1        0.0000
      3 H2          1.6910   -0.9730   -0.0000 H         1 TRI1        0.0000
      4 N3          2.1790    1.0650   -0.0000 N.2       1 TRI1        0.0000
      5 C4          1.6440    2.3040   -0.0000 C.2       1 TRI1        0.0000
      6 H4          2.3290    3.1560   -0.0000 H         1 TRI1        0.0000
      7 N5          0.3190    2.5600    0.0000 N.pl3     1 TRI1        0.0000
      8 C6         -0.4850    1.4770    0.0000 C.2       1 TRI1        0.0000
      9 H6         -1.5660    1.6440    0.0000 H         1 TRI1        0.0000
@<TRIPOS>BOND
     1    1    2 2 
     2    1    8 2 
     3    2    3 1 
     4    2    4 1 
     5    4    5 2 
     6    5    6 1 
     7    5    7 1 
     8    7    8 1 
     9    8    9 1 
