@<TRIPOS>MOLECULE
C:\Users\Praveer\PycharmProjects\pdb_to_mol2_converter\data\pdb\trib.pdb
    9     9     0     0     0
SMALL
GASTEIGER

@<TRIPOS>ATOM
      1 N1          0.9630    0.3490   -0.0000 N.ar      1 TRI1        0.0000
      2 N2          2.0460    1.1680    0.0000 N.ar      1 TRI1        0.0000
      3 C3          1.8900    2.5380    0.0000 C.ar      1 TRI1        0.0000
      4 H3          2.7910    3.1530    0.0000 H         1 TRI1        0.0000
      5 N4          0.6630    3.1730    0.0000 N.ar      1 TRI1        0.0000
      6 C5         -0.3740    2.3130   -0.0000 C.ar      1 TRI1        0.0000
      7 H5         -1.3650    2.7480   -0.0000 H         1 TRI1        0.0000
      8 C6         -0.2600    0.8930   -0.0000 C.ar      1 TRI1        0.0000
      9 H6         -1.1240    0.2500   -0.0000 H         1 TRI1        0.0000
@<TRIPOS>BOND
     1    1    2 ar
     2    1    8 ar
     3    2    3 ar
     4    3    4 1 
     5    3    5 ar
     6    5    6 ar
     7    6    7 1 
     8    6    8 ar
     9    8    9 1 
