@<TRIPOS>MOLECULE
C:\Users\Praveer\PycharmProjects\pdb_to_mol2_converter\data\pdb\trip.pdb
   71    70     0     0     0
SMALL
GASTEIGER

@<TRIPOS>ATOM
      1 H1          0.0080   -0.0130    0.0010 H         1 TRI1        0.0000
      2 O1          0.9640   -0.0130   -0.0010 O.3       1 TRI1        0.0000
      3 O2          0.5520    2.1960   -0.0060 O.2       1 TRI1        0.0000
      4 C1          1.3740    1.2990   -0.0050 C.2       1 TRI1        0.0000
      5 C2          2.8910    1.4390   -0.0080 C.3       1 TRI1        0.0000
      6 H2R         3.2880    0.9280   -0.9100 H         1 TRI1        0.0000
      7 H2S         3.2910    0.9290    0.8930 H         1 TRI1        0.0000
      8 C3          3.3320    2.9190   -0.0100 C.3       1 TRI1        0.0000
      9 H3R         2.9180    3.4350    0.8870 H         1 TRI1        0.0000
     10 H3S         2.9220    3.4320   -0.9100 H         1 TRI1        0.0000
     11 C4          4.8580    3.0720   -0.0060 C.3       1 TRI1        0.0000
     12 H4R         5.2800    2.5680   -0.9040 H         1 TRI1        0.0000
     13 H4S         5.2740    2.5650    0.8940 H         1 TRI1        0.0000
     14 C5          5.3020    4.5410   -0.0000 C.3       1 TRI1        0.0000
     15 H5R         4.8740    5.0470    0.8950 H         1 TRI1        0.0000
     16 H5S         4.8930    5.0500   -0.9020 H         1 TRI1        0.0000
     17 C6          6.8280    4.6990    0.0170 C.3       1 TRI1        0.0000
     18 H6R         7.2580    4.2010   -0.8810 H         1 TRI1        0.0000
     19 H6S         7.2360    4.1850    0.9170 H         1 TRI1        0.0000
     20 C7          7.2700    6.1680    0.0380 C.3       1 TRI1        0.0000
     21 H7R         6.8300    6.6670    0.9310 H         1 TRI1        0.0000
     22 H7S         6.8730    6.6820   -0.8660 H         1 TRI1        0.0000
     23 C8          8.7960    6.3260    0.0780 C.3       1 TRI1        0.0000
     24 H8R         9.2380    5.8370   -0.8190 H         1 TRI1        0.0000
     25 H8S         9.1910    5.8030    0.9780 H         1 TRI1        0.0000
     26 C9          9.2370    7.7950    0.1200 C.3       1 TRI1        0.0000
     27 H9R         8.7820    8.2850    1.0100 H         1 TRI1        0.0000
     28 H9S         8.8550    8.3180   -0.7850 H         1 TRI1        0.0000
     29 C10        10.7620    7.9540    0.1870 C.3       1 TRI1        0.0000
     30 H10R       11.2200    7.4760   -0.7070 H         1 TRI1        0.0000
     31 H10S       11.1430    7.4220    1.0880 H         1 TRI1        0.0000
     32 C11        11.1980    9.4240    0.2540 C.3       1 TRI1        0.0000
     33 H11R       10.7260    9.9020    1.1420 H         1 TRI1        0.0000
     34 H11S       10.8290    9.9560   -0.6520 H         1 TRI1        0.0000
     35 C12        12.7210    9.5890    0.3490 C.3       1 TRI1        0.0000
     36 H12R       13.1960    9.1250   -0.5440 H         1 TRI1        0.0000
     37 H12S       13.0890    9.0470    1.2490 H         1 TRI1        0.0000
     38 C13        13.1480   11.0600    0.4410 C.3       1 TRI1        0.0000
     39 H13R       12.6590   11.5240    1.3280 H         1 TRI1        0.0000
     40 H13S       12.7910   11.6020   -0.4630 H         1 TRI1        0.0000
     41 C14        14.6680   11.2310    0.5640 C.3       1 TRI1        0.0000
     42 H14R       15.1600   10.7800   -0.3270 H         1 TRI1        0.0000
     43 H14S       15.0240   10.6800    1.4630 H         1 TRI1        0.0000
     44 C15        15.0870   12.7030    0.6810 C.3       1 TRI1        0.0000
     45 H15R       14.5850   13.1540    1.5660 H         1 TRI1        0.0000
     46 H15S       14.7410   13.2540   -0.2220 H         1 TRI1        0.0000
     47 C16        16.6050   12.8780    0.8260 C.3       1 TRI1        0.0000
     48 H16R       17.1110   12.4370   -0.0620 H         1 TRI1        0.0000
     49 H16S       16.9510   12.3190    1.7240 H         1 TRI1        0.0000
     50 C17        17.0190   14.3500    0.9620 C.3       1 TRI1        0.0000
     51 H17R       16.5060   14.7910    1.8460 H         1 TRI1        0.0000
     52 H17S       16.6800   14.9090    0.0610 H         1 TRI1        0.0000
     53 C18        18.5350   14.5270    1.1220 C.3       1 TRI1        0.0000
     54 H18R       19.0490   14.0910    0.2360 H         1 TRI1        0.0000
     55 H18S       18.8740   13.9640    2.0210 H         1 TRI1        0.0000
     56 C19        18.9450   15.9990    1.2690 C.3       1 TRI1        0.0000
     57 H19R       18.4280   16.4340    2.1530 H         1 TRI1        0.0000
     58 H19S       18.6090   16.5620    0.3690 H         1 TRI1        0.0000
     59 C20        20.4600   16.1770    1.4370 C.3       1 TRI1        0.0000
     60 H20R       20.9780   15.7430    0.5520 H         1 TRI1        0.0000
     61 H20S       20.7960   15.6140    2.3360 H         1 TRI1        0.0000
     62 C21        20.8680   17.6500    1.5860 C.3       1 TRI1        0.0000
     63 H21R       20.3490   18.0840    2.4700 H         1 TRI1        0.0000
     64 H21S       20.5330   18.2140    0.6870 H         1 TRI1        0.0000
     65 C22        22.3820   17.8310    1.7550 C.3       1 TRI1        0.0000
     66 H22R       22.8970   17.3880    0.8720 H         1 TRI1        0.0000
     67 H22S       22.7130   17.2610    2.6540 H         1 TRI1        0.0000
     68 C23        22.8050   19.2950    1.9040 C.3       1 TRI1        0.0000
     69 H23R       22.3220   19.7500    2.7950 H         1 TRI1        0.0000
     70 H23S       22.5070   19.8780    1.0060 H         1 TRI1        0.0000
     71 H23T       23.9070   19.3730    2.0240 H         1 TRI1        0.0000
@<TRIPOS>BOND
     1    6    5 1 
     2   10    8 1 
     3   12   11 1 
     4   16   14 1 
     5   18   17 1 
     6   22   20 1 
     7   24   23 1 
     8   28   26 1 
     9   30   29 1 
    10   34   32 1 
    11   36   35 1 
    12   40   38 1 
    13   42   41 1 
    14   46   44 1 
    15   48   47 1 
    16    8    5 1 
    17    8   11 1 
    18    8    9 1 
    19    5    4 1 
    20    5    7 1 
    21    3    4 2 
    22   11   14 1 
    23   11   13 1 
    24    4    2 1 
    25    2    1 1 
    26   14   17 1 
    27   14   15 1 
    28   17   20 1 
    29   17   19 1 
    30   20   23 1 
    31   20   21 1 
    32   52   50 1 
    33   23   26 1 
    34   23   25 1 
    35   26   29 1 
    36   26   27 1 
    37   29   32 1 
    38   29   31 1 
    39   54   53 1 
    40   32   35 1 
    41   32   33 1 
    42   35   38 1 
    43   35   37 1 
    44   58   56 1 
    45   38   41 1 
    46   38   39 1 
    47   60   59 1 
    48   41   44 1 
    49   41   43 1 
    50   44   47 1 
    51   44   45 1 
    52   64   62 1 
    53   47   50 1 
    54   47   49 1 
    55   66   65 1 
    56   50   53 1 
    57   50   51 1 
    58   70   68 1 
    59   53   56 1 
    60   53   55 1 
    61   56   59 1 
    62   56   57 1 
    63   59   62 1 
    64   59   61 1 
    65   62   65 1 
    66   62   63 1 
    67   65   68 1 
    68   65   67 1 
    69   68   71 1 
    70   68   69 1 
