@<TRIPOS>MOLECULE
C:\Users\Praveer\PycharmProjects\pdb_to_mol2_converter\data\pdb\trit.pdb
   12    12     0     0     0
SMALL
GASTEIGER

@<TRIPOS>ATOM
      1 S1          0.1040   -0.1780   -0.1670 S.3       1 TRI1        0.0000
      2 C2          1.9160   -0.0270   -0.1100 C.3       1 TRI1        0.0000
      3 H21         2.3320   -0.5310   -1.0100 H         1 TRI1        0.0000
      4 H22         2.2990   -0.5990    0.7620 H         1 TRI1        0.0000
      5 S3          2.5870    1.6630   -0.0510 S.3       1 TRI1        0.0000
      6 C4          1.9260    2.1800    1.5640 C.3       1 TRI1        0.0000
      7 H41         2.3490    3.1800    1.8040 H         1 TRI1        0.0000
      8 H42         2.3090    1.4920    2.3480 H         1 TRI1        0.0000
      9 S5          0.1150    2.2870    1.7020 S.3       1 TRI1        0.0000
     10 C6         -0.2970    0.5310    1.4590 C.3       1 TRI1        0.0000
     11 H61         0.2030   -0.0700    2.2490 H         1 TRI1        0.0000
     12 H62        -1.3890    0.4080    1.6290 H         1 TRI1        0.0000
@<TRIPOS>BOND
     1    3    2 1 
     2    1    2 1 
     3    1   10 1 
     4    2    5 1 
     5    2    4 1 
     6    5    6 1 
     7   10   12 1 
     8   10    9 1 
     9   10   11 1 
    10    6    9 1 
    11    6    7 1 
    12    6    8 1 
