@<TRIPOS>MOLECULE
C:\Users\Praveer\PycharmProjects\pdb_to_mol2_converter\data\pdb\trz2.pdb
    8     8     0     0     0
SMALL
GASTEIGER

@<TRIPOS>ATOM
      1 C4          1.1100    2.0530    0.0000 C.ar      1 TRZ1        0.0000
      2 H4          1.3300    3.1140    0.0000 H         1 TRZ1        0.0000
      3 C5         -0.1300    1.4120   -0.0000 C.ar      1 TRZ1        0.0000
      4 H5         -1.1230    1.8460   -0.0000 H         1 TRZ1        0.0000
      5 N1          0.0520    0.1030   -0.0000 N.ar      1 TRZ1        0.0000
      6 N2          1.3880   -0.0060   -0.0000 N.ar      1 TRZ1        0.0000
      7 H2          1.8530   -0.9050    0.0000 H         1 TRZ1        0.0000
      8 N3          2.0720    1.1470   -0.0000 N.ar      1 TRZ1        0.0000
@<TRIPOS>BOND
     1    1    2 1 
     2    1    3 ar
     3    1    8 ar
     4    3    4 1 
     5    3    5 ar
     6    5    6 ar
     7    6    7 1 
     8    6    8 ar
