@<TRIPOS>MOLECULE
C:\Users\Praveer\PycharmProjects\pdb_to_mol2_converter\data\pdb\trz3.pdb
    8     8     0     0     0
SMALL
GASTEIGER

@<TRIPOS>ATOM
      1 C1          1.4000   -0.0130    0.0000 C.ar      1 TRZ1        0.0000
      2 H1          1.9870   -0.9170    0.0000 H         1 TRZ1        0.0000
      3 C2          1.7630    1.2860   -0.0000 C.ar      1 TRZ1        0.0000
      4 H2          2.7390    1.7580   -0.0000 H         1 TRZ1        0.0000
      5 N3          0.6210    2.0680   -0.0000 N.ar      1 TRZ1        0.0000
      6 N4         -0.4470    1.3180    0.0000 N.ar      1 TRZ1        0.0000
      7 N5          0.0340    0.0540    0.0000 N.ar      1 TRZ1        0.0000
      8 H5         -0.6270   -0.7110    0.0000 H         1 TRZ1        0.0000
@<TRIPOS>BOND
     1    1    2 1 
     2    1    3 ar
     3    1    7 ar
     4    3    4 1 
     5    3    5 ar
     6    5    6 ar
     7    6    7 ar
     8    7    8 1 
