@<TRIPOS>MOLECULE
C:\Users\Praveer\PycharmProjects\pdb_to_mol2_converter\data\pdb\trz4.pdb
    8     8     0     0     0
SMALL
GASTEIGER

@<TRIPOS>ATOM
      1 C1          0.0270   -0.1250    0.0000 C.3       1 TRZ1        0.0000
      2 H1         -0.5510   -1.0510    0.0000 H         1 TRZ1        0.0000
      3 N2          1.3380   -0.0230   -0.0000 N.2       1 TRZ1        0.0000
      4 C3          1.5620    1.2990   -0.0000 C.2       1 TRZ1        0.0000
      5 H3          2.5650    1.7310   -0.0000 H         1 TRZ1        0.0000
      6 N4          0.4510    2.0440   -0.0000 N.pl3     1 TRZ1        0.0000
      7 N5         -0.5150    1.1080    0.0000 N.3       1 TRZ1        0.0000
      8 H5         -1.4930    1.3640    0.0000 H         1 TRZ1        0.0000
@<TRIPOS>BOND
     1    1    2 1 
     2    1    3 1 
     3    1    7 1 
     4    3    4 2 
     5    4    5 1 
     6    4    6 1 
     7    6    7 1 
     8    7    8 1 
