@<TRIPOS>MOLECULE
C:\Users\Praveer\PycharmProjects\pdb_to_mol2_converter\data\pdb\tta.pdb
   65    64     0     0     0
SMALL
GASTEIGER

@<TRIPOS>ATOM
      1 O1         -0.0280   -0.0620    0.0470 O.co2     1 TTA1        0.0000
      2 O2          1.9450   -1.0040   -0.3620 O.co2     1 TTA1        0.0000
      3 C1          1.2260   -0.0160   -0.0740 C.2       1 TTA1        0.0000
      4 C2          1.8860    1.3460    0.1520 C.3       1 TTA1        0.0000
      5 H2R         1.6320    1.6690    1.1810 H         1 TTA1        0.0000
      6 H2S         1.4300    2.0560   -0.5670 H         1 TTA1        0.0000
      7 C3          3.4190    1.3150   -0.0340 C.3       1 TTA1        0.0000
      8 H3R         3.6490    0.9580   -1.0640 H         1 TTA1        0.0000
      9 H3S         3.8540    0.5750    0.6750 H         1 TTA1        0.0000
     10 C4          4.0690    2.6850    0.1900 C.3       1 TTA1        0.0000
     11 H4R         3.8530    3.0200    1.2290 H         1 TTA1        0.0000
     12 H4S         3.6100    3.4210   -0.5080 H         1 TTA1        0.0000
     13 C5          5.5850    2.6450   -0.0340 C.3       1 TTA1        0.0000
     14 H5R         5.7790    2.3250   -1.0820 H         1 TTA1        0.0000
     15 H5S         6.0290    1.8770    0.6380 H         1 TTA1        0.0000
     16 C6          6.2700    3.9940    0.2210 C.3       1 TTA1        0.0000
     17 H6R         6.1220    4.2830    1.2850 H         1 TTA1        0.0000
     18 H6S         5.7880    4.7720   -0.4110 H         1 TTA1        0.0000
     19 C7          7.7710    3.9420   -0.0950 C.3       1 TTA1        0.0000
     20 H7R         7.8960    3.6620   -1.1660 H         1 TTA1        0.0000
     21 H7S         8.2310    3.1360    0.5220 H         1 TTA1        0.0000
     22 C8          8.4890    5.2770    0.1710 C.3       1 TTA1        0.0000
     23 H8R         8.3590    5.5410    1.2440 H         1 TTA1        0.0000
     24 H8S         7.9800    6.0730   -0.4140 H         1 TTA1        0.0000
     25 C9          9.9590    5.1680   -0.1580 C.2       1 TTA1        0.0000
     26 H9R        10.4970    4.4140    0.4370 H         1 TTA1        0.0000
     27 C10        10.6480    5.8700   -1.0790 C.2       1 TTA1        0.0000
     28 H10R       11.7220    5.6590   -1.1980 H         1 TTA1        0.0000
     29 C11        10.1160    6.9390   -2.0040 C.3       1 TTA1        0.0000
     30 H11R        9.0070    6.8880   -2.0800 H         1 TTA1        0.0000
     31 H11S       10.4810    6.7400   -3.0360 H         1 TTA1        0.0000
     32 C12        10.5790    8.3110   -1.5700 C.2       1 TTA1        0.0000
     33 H12R       11.6710    8.4300   -1.4820 H         1 TTA1        0.0000
     34 C13         9.7880    9.3630   -1.2910 C.2       1 TTA1        0.0000
     35 H13R       10.2560   10.3130   -0.9840 H         1 TTA1        0.0000
     36 C14         8.2800    9.3470   -1.3690 C.3       1 TTA1        0.0000
     37 H14R        7.8950    8.5580   -0.6860 H         1 TTA1        0.0000
     38 H14S        7.9820    9.0320   -2.3950 H         1 TTA1        0.0000
     39 C15         7.6110   10.6540   -1.0100 C.2       1 TTA1        0.0000
     40 H15R        8.2060   11.3470   -0.3940 H         1 TTA1        0.0000
     41 C16         6.3650   11.0220   -1.3690 C.2       1 TTA1        0.0000
     42 H16R        5.9930   12.0060   -1.0420 H         1 TTA1        0.0000
     43 C17         5.3910   10.2130   -2.1950 C.3       1 TTA1        0.0000
     44 H17R        5.8480    9.2600   -2.5400 H         1 TTA1        0.0000
     45 H17S        5.1600   10.7740   -3.1280 H         1 TTA1        0.0000
     46 C18         4.1010    9.9560   -1.4520 C.2       1 TTA1        0.0000
     47 H18R        3.5370   10.8590   -1.1710 H         1 TTA1        0.0000
     48 C19         3.5850    8.7500   -1.1350 C.2       1 TTA1        0.0000
     49 H19R        2.6240    8.7050   -0.6010 H         1 TTA1        0.0000
     50 C20         4.2110    7.4100   -1.4370 C.3       1 TTA1        0.0000
     51 H20R        3.8910    6.6570   -0.6820 H         1 TTA1        0.0000
     52 H20S        5.3190    7.4710   -1.3650 H         1 TTA1        0.0000
     53 C21         3.8270    6.8930   -2.8370 C.3       1 TTA1        0.0000
     54 H21R        4.1310    7.6360   -3.6090 H         1 TTA1        0.0000
     55 H21S        2.7190    6.7850   -2.8910 H         1 TTA1        0.0000
     56 C22         4.4620    5.5380   -3.1890 C.3       1 TTA1        0.0000
     57 H22R        4.0150    5.1730   -4.1410 H         1 TTA1        0.0000
     58 H22S        4.2100    4.7950   -2.3990 H         1 TTA1        0.0000
     59 C23         5.9870    5.5970   -3.3630 C.3       1 TTA1        0.0000
     60 H23R        6.4560    5.9050   -2.4020 H         1 TTA1        0.0000
     61 H23S        6.2330    6.3780   -4.1180 H         1 TTA1        0.0000
     62 C24         6.5920    4.2620   -3.8020 C.3       1 TTA1        0.0000
     63 H24R        6.1820    3.9520   -4.7870 H         1 TTA1        0.0000
     64 H24S        6.3550    3.4690   -3.0600 H         1 TTA1        0.0000
     65 H24T        7.6970    4.3440   -3.8860 H         1 TTA1        0.0000
@<TRIPOS>BOND
     1   63   62 1 
     2   57   56 1 
     3   61   59 1 
     4   65   62 1 
     5   62   59 1 
     6   62   64 1 
     7   54   53 1 
     8   59   56 1 
     9   59   60 1 
    10   56   53 1 
    11   56   58 1 
    12   45   43 1 
    13   31   29 1 
    14   55   53 1 
    15   53   50 1 
    16   44   43 1 
    17   38   36 1 
    18   43   46 1 
    19   43   41 1 
    20   30   29 1 
    21   29   32 1 
    22   29   27 1 
    23   32   33 1 
    24   32   34 2 
    25   46   47 1 
    26   46   48 2 
    27   50   52 1 
    28   50   48 1 
    29   50   51 1 
    30   41   42 1 
    31   41   39 2 
    32   36   34 1 
    33   36   39 1 
    34   36   37 1 
    35   34   35 1 
    36   28   27 1 
    37   20   19 1 
    38   48   49 1 
    39   14   13 1 
    40   27   25 2 
    41    8    7 1 
    42   39   40 1 
    43    6    4 1 
    44   12   10 1 
    45   24   22 1 
    46   18   16 1 
    47    2    3 ar
    48   25   22 1 
    49   25   26 1 
    50   19   22 1 
    51   19   16 1 
    52   19   21 1 
    53    3    1 ar
    54    3    4 1 
    55    7    4 1 
    56    7   10 1 
    57    7    9 1 
    58   13   10 1 
    59   13   16 1 
    60   13   15 1 
    61    4    5 1 
    62   22   23 1 
    63   10   11 1 
    64   16   17 1 
