@<TRIPOS>MOLECULE
C:\Users\Praveer\PycharmProjects\pdb_to_mol2_converter\data\pdb\ttap.pdb
   66    65     0     0     0
SMALL
GASTEIGER

@<TRIPOS>ATOM
      1 H1          0.0530    0.0630    0.2460 H         1 TTA1        0.0000
      2 O1          1.0050    0.0570    0.3140 O.3       1 TTA1        0.0000
      3 O2          0.6660    2.1550   -0.3890 O.2       1 TTA1        0.0000
      4 C1          1.4520    1.2950   -0.0560 C.2       1 TTA1        0.0000
      5 C2          2.9700    1.4140    0.0170 C.3       1 TTA1        0.0000
      6 H2R         3.4210    0.6410   -0.6410 H         1 TTA1        0.0000
      7 H2S         3.2870    1.2140    1.0620 H         1 TTA1        0.0000
      8 C3          3.4410    2.8180   -0.4140 C.3       1 TTA1        0.0000
      9 H3R         2.9560    3.5890    0.2270 H         1 TTA1        0.0000
     10 H3S         3.1410    3.0210   -1.4670 H         1 TTA1        0.0000
     11 C4          4.9610    2.9630   -0.2880 C.3       1 TTA1        0.0000
     12 H4R         5.4590    2.2750   -1.0080 H         1 TTA1        0.0000
     13 H4S         5.2710    2.6650    0.7380 H         1 TTA1        0.0000
     14 C5          5.4340    4.3980   -0.5480 C.3       1 TTA1        0.0000
     15 H5R         4.9220    5.0890    0.1590 H         1 TTA1        0.0000
     16 H5S         5.1490    4.6970   -1.5810 H         1 TTA1        0.0000
     17 C6          6.9510    4.5380   -0.3830 C.3       1 TTA1        0.0000
     18 H6R         7.4590    3.8200   -1.0660 H         1 TTA1        0.0000
     19 H6S         7.2300    4.2620    0.6590 H         1 TTA1        0.0000
     20 C7          7.4430    5.9590   -0.6950 C.3       1 TTA1        0.0000
     21 H7R         6.9720    6.6750    0.0140 H         1 TTA1        0.0000
     22 H7S         7.0930    6.2260   -1.7180 H         1 TTA1        0.0000
     23 C8          8.9770    6.1050   -0.6540 C.3       1 TTA1        0.0000
     24 H8R         9.2360    7.1430   -0.9550 H         1 TTA1        0.0000
     25 H8S         9.4100    5.4380   -1.4340 H         1 TTA1        0.0000
     26 C9          9.5430    5.8160    0.7190 C.2       1 TTA1        0.0000
     27 H9R         9.3200    6.5850    1.4760 H         1 TTA1        0.0000
     28 C10        10.2640    4.7400    1.0820 C.2       1 TTA1        0.0000
     29 H10R       10.6100    4.6590    2.1250 H         1 TTA1        0.0000
     30 C11        10.6670    3.5810    0.1930 C.3       1 TTA1        0.0000
     31 H11R        9.9450    3.4600   -0.6430 H         1 TTA1        0.0000
     32 H11S       10.6020    2.6370    0.7770 H         1 TTA1        0.0000
     33 C12        12.0720    3.7520   -0.3300 C.2       1 TTA1        0.0000
     34 H12R       12.7520    4.3190    0.3230 H         1 TTA1        0.0000
     35 C13        12.5620    3.2870   -1.5000 C.2       1 TTA1        0.0000
     36 H13R       13.6130    3.5070   -1.7420 H         1 TTA1        0.0000
     37 C14        11.8260    2.4840   -2.5420 C.3       1 TTA1        0.0000
     38 H14R       11.8860    3.0180   -3.5150 H         1 TTA1        0.0000
     39 H14S       10.7430    2.4200   -2.3080 H         1 TTA1        0.0000
     40 C15        12.4340    1.1060   -2.6990 C.2       1 TTA1        0.0000
     41 H15R       13.5280    1.0850   -2.8170 H         1 TTA1        0.0000
     42 C16        11.7600   -0.0610   -2.6990 C.2       1 TTA1        0.0000
     43 H16R       12.3260   -1.0000   -2.8030 H         1 TTA1        0.0000
     44 C17        10.2660   -0.1930   -2.5430 C.3       1 TTA1        0.0000
     45 H17R        9.7610    0.5810   -3.1620 H         1 TTA1        0.0000
     46 H17S       10.0090    0.0440   -1.4860 H         1 TTA1        0.0000
     47 C18         9.6900   -1.5420   -2.9170 C.2       1 TTA1        0.0000
     48 H18R       10.2880   -2.1510   -3.6160 H         1 TTA1        0.0000
     49 C19         8.5200   -2.0210   -2.4610 C.2       1 TTA1        0.0000
     50 H19R        8.1810   -3.0220   -2.7750 H         1 TTA1        0.0000
     51 C20         7.5970   -1.2830   -1.5170 C.3       1 TTA1        0.0000
     52 H20R        6.5330   -1.4370   -1.8010 H         1 TTA1        0.0000
     53 H20S        7.7700   -0.1870   -1.5820 H         1 TTA1        0.0000
     54 C21         7.7970   -1.7220   -0.0530 C.3       1 TTA1        0.0000
     55 H21R        8.8790   -1.8800    0.1610 H         1 TTA1        0.0000
     56 H21S        7.2800   -2.6950    0.1030 H         1 TTA1        0.0000
     57 C22         7.2740   -0.6950    0.9690 C.3       1 TTA1        0.0000
     58 H22R        7.2320   -1.1930    1.9640 H         1 TTA1        0.0000
     59 H22S        6.2410   -0.3840    0.7040 H         1 TTA1        0.0000
     60 C23         8.1840    0.5370    1.0990 C.3       1 TTA1        0.0000
     61 H23R        8.1330    1.1420    0.1650 H         1 TTA1        0.0000
     62 H23S        9.2370    0.1880    1.2070 H         1 TTA1        0.0000
     63 C24         7.8410    1.4260    2.3000 C.3       1 TTA1        0.0000
     64 H24R        7.9510    0.8520    3.2450 H         1 TTA1        0.0000
     65 H24S        6.7980    1.7970    2.2300 H         1 TTA1        0.0000
     66 H24T        8.5250    2.3010    2.3410 H         1 TTA1        0.0000
@<TRIPOS>BOND
     1   48   47 1 
     2   38   37 1 
     3   45   44 1 
     4   47   44 1 
     5   47   49 2 
     6   41   40 1 
     7   43   42 1 
     8   50   49 1 
     9   40   42 2 
    10   40   37 1 
    11   42   44 1 
    12   44   46 1 
    13   37   39 1 
    14   37   35 1 
    15   49   51 1 
    16   52   51 1 
    17   36   35 1 
    18   22   20 1 
    19   53   51 1 
    20   16   14 1 
    21   51   54 1 
    22   35   33 2 
    23   10    8 1 
    24   25   23 1 
    25   18   17 1 
    26   12   11 1 
    27   24   23 1 
    28   20   23 1 
    29   20   17 1 
    30   20   21 1 
    31   23   26 1 
    32   31   30 1 
    33    6    5 1 
    34   14   17 1 
    35   14   11 1 
    36   14   15 1 
    37    8   11 1 
    38    8    5 1 
    39    8    9 1 
    40    3    4 2 
    41   17   19 1 
    42   33   30 1 
    43   33   34 1 
    44   11   13 1 
    45    4    5 1 
    46    4    2 1 
    47   54   56 1 
    48   54   55 1 
    49   54   57 1 
    50    5    7 1 
    51   61   60 1 
    52   30   32 1 
    53   30   28 1 
    54    1    2 1 
    55   59   57 1 
    56   26   28 2 
    57   26   27 1 
    58   57   60 1 
    59   57   58 1 
    60   28   29 1 
    61   60   62 1 
    62   60   63 1 
    63   65   63 1 
    64   63   66 1 
    65   63   64 1 
