@<TRIPOS>MOLECULE
C:\Users\Praveer\PycharmProjects\pdb_to_mol2_converter\data\pdb\tthy.pdb
   26    27     0     0     0
SMALL
GASTEIGER

@<TRIPOS>ATOM
      1 N1         -0.6240   -1.0110   -0.7610 N.ar      1 TTH1        0.0000
      2 C6         -1.4220   -0.6880   -1.8330 C.ar      1 TTH1        0.0000
      3 H6         -1.5450    0.3760   -2.0440 H         1 TTH1        0.0000
      4 C2         -0.4340   -2.3560   -0.4180 C.ar      1 TTH1        0.0000
      5 O2          0.2490   -2.7110    0.5400 O.2       1 TTH1        0.0000
      6 N3         -1.0590   -3.2850   -1.2040 N.ar      1 TTH1        0.0000
      7 H3         -0.9240   -4.2470   -0.9650 H         1 TTH1        0.0000
      8 C4         -1.8610   -3.0210   -2.2880 C.ar      1 TTH1        0.0000
      9 O4         -2.3500   -3.9720   -2.8930 O.2       1 TTH1        0.0000
     10 C5         -2.0490   -1.6290   -2.6140 C.ar      1 TTH1        0.0000
     11 C5M        -2.9240   -1.2790   -3.7770 C.3       1 TTH1        0.0000
     12 H51        -2.9870   -0.1790   -3.9320 H         1 TTH1        0.0000
     13 H52        -3.9590   -1.6610   -3.6200 H         1 TTH1        0.0000
     14 H53        -2.5350   -1.7350   -4.7150 H         1 TTH1        0.0000
     15 O4'        -0.3610    1.3340   -0.4230 O.3       1 TTH1        0.0000
     16 C1'         0.0320    0.0340    0.0510 C.3       1 TTH1        0.0000
     17 H12'       -0.3020   -0.0170    1.1020 H         1 TTH1        0.0000
     18 C4'         0.7890    2.1200   -0.7570 C.3       1 TTH1        0.0000
     19 H41'        0.5880    3.1750   -0.5220 H         1 TTH1        0.0000
     20 H42'        0.9480    2.0280   -1.8420 H         1 TTH1        0.0000
     21 C2'         1.5600    0.0200   -0.0130 C.3       1 TTH1        0.0000
     22 H21'        1.9100   -0.4230   -0.9600 H         1 TTH1        0.0000
     23 H22'        2.0110   -0.5680    0.7970 H         1 TTH1        0.0000
     24 C3'         1.9250    1.5020    0.0410 C.3       1 TTH1        0.0000
     25 H31'        1.9010    1.8640    1.0820 H         1 TTH1        0.0000
     26 H32'        2.9210    1.7270   -0.3610 H         1 TTH1        0.0000
@<TRIPOS>BOND
     1   14   11 1 
     2   12   11 1 
     3   11   13 1 
     4   11   10 1 
     5    9    8 2 
     6   10    8 ar
     7   10    2 ar
     8    8    6 ar
     9    3    2 1 
    10   20   18 1 
    11    2    1 ar
    12    6    7 1 
    13    6    4 ar
    14   22   21 1 
    15    1    4 ar
    16    1   16 1 
    17   18   19 1 
    18   18   15 1 
    19   18   24 1 
    20   15   16 1 
    21    4    5 2 
    22   26   24 1 
    23   21   24 1 
    24   21   16 1 
    25   21   23 1 
    26   24   25 1 
    27   16   17 1 
