@<TRIPOS>MOLECULE
C:\Users\Praveer\PycharmProjects\pdb_to_mol2_converter\data\pdb\tura.pdb
   23    24     0     0     0
SMALL
GASTEIGER

@<TRIPOS>ATOM
      1 N1         -0.6330   -1.0200   -0.7780 N.ar      1 TUR1        0.0000
      2 C6         -1.4210   -0.7100   -1.8590 C.ar      1 TUR1        0.0000
      3 H6         -1.5440    0.3510   -2.0910 H         1 TUR1        0.0000
      4 C2         -0.4470   -2.3620   -0.4190 C.ar      1 TUR1        0.0000
      5 O2          0.2290   -2.7080    0.5460 O.2       1 TUR1        0.0000
      6 N3         -1.0670   -3.2990   -1.1980 N.ar      1 TUR1        0.0000
      7 H3         -0.9340   -4.2580   -0.9470 H         1 TUR1        0.0000
      8 C4         -1.8580   -3.0440   -2.2900 C.ar      1 TUR1        0.0000
      9 O4         -2.3460   -3.9940   -2.8930 O.2       1 TUR1        0.0000
     10 C5         -2.0390   -1.6660   -2.6260 C.ar      1 TUR1        0.0000
     11 H5         -2.6550   -1.3810   -3.4750 H         1 TUR1        0.0000
     12 O4'        -0.3730    1.3250   -0.4600 O.3       1 TUR1        0.0000
     13 C1'         0.0200    0.0310    0.0280 C.3       1 TUR1        0.0000
     14 H12'       -0.3170   -0.0100    1.0790 H         1 TUR1        0.0000
     15 C4'         0.7760    2.1190   -0.7730 C.3       1 TUR1        0.0000
     16 H41'        0.5670    3.1710   -0.5310 H         1 TUR1        0.0000
     17 H42'        0.9490    2.0370   -1.8570 H         1 TUR1        0.0000
     18 C2'         1.5480    0.0180   -0.0320 C.3       1 TUR1        0.0000
     19 H21'        1.9020   -0.4170   -0.9800 H         1 TUR1        0.0000
     20 H22'        1.9980   -0.5740    0.7760 H         1 TUR1        0.0000
     21 C3'         1.9080    1.5010    0.0330 C.3       1 TUR1        0.0000
     22 H31'        1.8720    1.8590    1.0750 H         1 TUR1        0.0000
     23 H32'        2.9070    1.7320   -0.3580 H         1 TUR1        0.0000
@<TRIPOS>BOND
     1   11   10 1 
     2    9    8 2 
     3   10    8 ar
     4   10    2 ar
     5    8    6 ar
     6    3    2 1 
     7    2    1 ar
     8   17   15 1 
     9    6    7 1 
    10    6    4 ar
    11   19   18 1 
    12    1    4 ar
    13    1   13 1 
    14   15   16 1 
    15   15   12 1 
    16   15   21 1 
    17   12   13 1 
    18    4    5 2 
    19   23   21 1 
    20   18   13 1 
    21   18   21 1 
    22   18   20 1 
    23   13   14 1 
    24   21   22 1 
