@<TRIPOS>MOLECULE
C:\Users\Praveer\PycharmProjects\pdb_to_mol2_converter\data\pdb\txcl1.pdb
  225   224     0     0     0
SMALL
GASTEIGER

@<TRIPOS>ATOM
      1 C3          1.5890   -0.1690   -0.0750 C.3       1 TXC1        0.0000
      2 HG31        1.8670   -0.6410    0.8970 H         1 TXC1        0.0000
      3 HG32        1.9080   -0.8440   -0.8990 H         1 TXC1        0.0000
      4 P3          3.6520    1.4490    0.2660 P.3       1 TXC1        0.0000
      5 OP33        3.5170    2.4250    1.3660 O.3       1 TXC1        0.0000
      6 OP34        4.5220    1.7940   -0.8790 O.2       1 TXC1        0.0000
      7 OP31        2.2060    1.0960   -0.2680 O.3       1 TXC1        0.0000
      8 OP32        4.1350    0.0700    0.8820 O.3       1 TXC1        0.0000
      9 C31         4.9300   -0.8200    0.0990 C.3       1 TXC1        0.0000
     10 H31J        5.9080   -0.3460   -0.1490 H         1 TXC1        0.0000
     11 H31K        4.4280   -1.0670   -0.8640 H         1 TXC1        0.0000
     12 C2          0.0530   -0.0070   -0.0940 C.3       1 TXC1        0.0000
     13 HG22       -0.2160    0.6570   -0.9470 H         1 TXC1        0.0000
     14 OG12       -0.5350   -1.2930   -0.2980 O.3       1 TXC1        0.0000
     15 HO12       -0.1420   -1.6230   -1.1120 H         1 TXC1        0.0000
     16 C1         -0.5160    0.6290    1.2090 C.3       1 TXC1        0.0000
     17 HG11       -0.1920   -0.0420    2.0440 H         1 TXC1        0.0000
     18 HG12       -1.6270    0.5830    1.1490 H         1 TXC1        0.0000
     19 P1          0.2500    2.4880    2.7950 P.3       1 TXC1        0.0000
     20 OP13        1.6690    1.9850    3.2160 O.3       1 TXC1        0.0000
     21 HP13        2.3490    2.2800    2.5730 H         1 TXC1        0.0000
     22 OP14        0.1760    3.9450    2.9830 O.2       1 TXC1        0.0000
     23 OP11       -0.1160    1.9980    1.3510 O.3       1 TXC1        0.0000
     24 OP12       -0.8050    1.7640    3.7100 O.3       1 TXC1        0.0000
     25 C11        -0.9230    2.2480    5.0510 C.3       1 TXC1        0.0000
     26 H11J       -1.8950    1.8740    5.4390 H         1 TXC1        0.0000
     27 H11K       -0.9800    3.3600    5.1190 H         1 TXC1        0.0000
     28 C12         0.1810    1.7030    6.0160 C.3       1 TXC1        0.0000
     29 H12J        1.0430    2.4090    5.9220 H         1 TXC1        0.0000
     30 O12         0.5780    0.3760    5.6030 O.3       1 TXC1        0.0000
     31 CA1         1.7930    0.0160    6.0150 C.2       1 TXC1        0.0000
     32 OA1         2.4780    0.6470    6.8020 O.2       1 TXC1        0.0000
     33 CA2         2.2170   -1.2510    5.2670 C.3       1 TXC1        0.0000
     34 H2A         2.9430   -0.9290    4.4890 H         1 TXC1        0.0000
     35 H2B         1.3340   -1.6890    4.7580 H         1 TXC1        0.0000
     36 C13        -0.3120    1.7240    7.4930 C.3       1 TXC1        0.0000
     37 H13J       -0.5380    2.7820    7.7560 H         1 TXC1        0.0000
     38 H13K        0.5010    1.3980    8.1820 H         1 TXC1        0.0000
     39 O13        -1.5240    0.9520    7.6320 O.3       1 TXC1        0.0000
     40 CB1        -1.3510   -0.3270    7.9650 C.2       1 TXC1        0.0000
     41 OB1        -0.3130   -0.8270    8.3490 O.2       1 TXC1        0.0000
     42 CB2        -2.6630   -1.0830    7.7730 C.3       1 TXC1        0.0000
     43 H2D        -3.2020   -0.6370    6.9110 H         1 TXC1        0.0000
     44 H2E        -3.2710   -0.9410    8.6890 H         1 TXC1        0.0000
     45 C32         5.2140   -2.1160    0.9050 C.3       1 TXC1        0.0000
     46 H32J        5.8980   -2.7660    0.3120 H         1 TXC1        0.0000
     47 O32         4.0030   -2.8240    1.2190 O.3       1 TXC1        0.0000
     48 CC1         3.3990   -3.4070    0.2090 C.2       1 TXC1        0.0000
     49 OC1         3.7600   -3.4180   -0.9540 O.2       1 TXC1        0.0000
     50 CC2         2.1970   -4.1700    0.7540 C.3       1 TXC1        0.0000
     51 H2R         1.4980   -4.3630   -0.0840 H         1 TXC1        0.0000
     52 H2S         1.6920   -3.5240    1.5010 H         1 TXC1        0.0000
     53 C33         5.9280   -1.7760    2.2430 C.3       1 TXC1        0.0000
     54 H33J        5.2600   -1.0410    2.7580 H         1 TXC1        0.0000
     55 H33K        6.8940   -1.2730    2.0220 H         1 TXC1        0.0000
     56 O33         6.1440   -2.9670    3.0370 O.3       1 TXC1        0.0000
     57 CD1         6.2390   -2.7290    4.3430 C.2       1 TXC1        0.0000
     58 OD1         6.3020   -1.6310    4.8590 O.2       1 TXC1        0.0000
     59 CD2         6.2500   -4.0430    5.1300 C.3       1 TXC1        0.0000
     60 H2X         5.9220   -3.7990    6.1620 H         1 TXC1        0.0000
     61 H2Y         7.2970   -4.4050    5.1690 H         1 TXC1        0.0000
     62 CA3         2.8820   -2.3120    6.1740 C.3       1 TXC1        0.0000
     63 H3A         3.7720   -1.8850    6.6890 H         1 TXC1        0.0000
     64 H3B         3.2380   -3.1350    5.5140 H         1 TXC1        0.0000
     65 CA4         1.9170   -2.9160    7.2030 C.3       1 TXC1        0.0000
     66 H4A         0.9370   -3.1130    6.7140 H         1 TXC1        0.0000
     67 H4B         1.7440   -2.1760    8.0160 H         1 TXC1        0.0000
     68 CA5         2.4340   -4.2220    7.8220 C.3       1 TXC1        0.0000
     69 H5A         3.4050   -4.0220    8.3260 H         1 TXC1        0.0000
     70 H5B         2.6170   -4.9610    7.0090 H         1 TXC1        0.0000
     71 CA6         1.4410   -4.8260    8.8280 C.3       1 TXC1        0.0000
     72 H6A         0.4570   -4.9430    8.3190 H         1 TXC1        0.0000
     73 H6B         1.2890   -4.1110    9.6640 H         1 TXC1        0.0000
     74 CA7         1.8680   -6.2030    9.3730 C.3       1 TXC1        0.0000
     75 H7A         2.0100   -6.8850    8.5040 H         1 TXC1        0.0000
     76 H7B         1.0400   -6.6240    9.9860 H         1 TXC1        0.0000
     77 CA8         3.1660   -6.2090   10.2090 C.3       1 TXC1        0.0000
     78 H8A         3.9890   -5.7810    9.5970 H         1 TXC1        0.0000
     79 H8B         3.4330   -7.2740   10.3970 H         1 TXC1        0.0000
     80 CA9         3.0220   -5.4360   11.4990 C.2       1 TXC1        0.0000
     81 H9A         2.6460   -4.4070   11.3790 H         1 TXC1        0.0000
     82 CA10        3.2850   -5.8800   12.7430 C.2       1 TXC1        0.0000
     83 H10A        3.1110   -5.2010   13.5930 H         1 TXC1        0.0000
     84 CA11        3.8230   -7.2370   13.1230 C.3       1 TXC1        0.0000
     85 H11A        4.4800   -7.1410   14.0170 H         1 TXC1        0.0000
     86 H11B        4.4580   -7.6620   12.3150 H         1 TXC1        0.0000
     87 CA12        2.7060   -8.2470   13.4450 C.3       1 TXC1        0.0000
     88 H12A        2.1210   -8.4500   12.5200 H         1 TXC1        0.0000
     89 H12B        2.0140   -7.8130   14.2020 H         1 TXC1        0.0000
     90 CA13        3.2620   -9.5710   13.9920 C.3       1 TXC1        0.0000
     91 H13A        3.7670   -9.3810   14.9650 H         1 TXC1        0.0000
     92 H13B        4.0400   -9.9460   13.2910 H         1 TXC1        0.0000
     93 CA14        2.1950  -10.6670   14.1660 C.3       1 TXC1        0.0000
     94 H14A        2.6990  -11.5970   14.5150 H         1 TXC1        0.0000
     95 H14B        1.7470  -10.8870   13.1720 H         1 TXC1        0.0000
     96 CA15        1.0670  -10.3260   15.1550 C.3       1 TXC1        0.0000
     97 H15A        0.3490  -11.1790   15.1680 H         1 TXC1        0.0000
     98 H15B        0.5090   -9.4390   14.7820 H         1 TXC1        0.0000
     99 CA16        1.5380  -10.0620   16.5890 C.3       1 TXC1        0.0000
    100 H16A        2.1940   -9.1660   16.6290 H         1 TXC1        0.0000
    101 H16B        2.1090  -10.9340   16.9760 H         1 TXC1        0.0000
    102 H16C        0.6680   -9.8870   17.2580 H         1 TXC1        0.0000
    103 CB3        -2.4220   -2.5880    7.5020 C.3       1 TXC1        0.0000
    104 H3D        -1.8790   -3.0530    8.3540 H         1 TXC1        0.0000
    105 H3E        -1.7680   -2.6880    6.6030 H         1 TXC1        0.0000
    106 CB4        -3.7240   -3.3590    7.2250 C.3       1 TXC1        0.0000
    107 H4D        -3.4790   -4.3740    6.8490 H         1 TXC1        0.0000
    108 H4E        -4.2680   -2.8360    6.4060 H         1 TXC1        0.0000
    109 CB5        -4.6620   -3.4970    8.4370 C.3       1 TXC1        0.0000
    110 H5D        -5.6480   -3.8790    8.0840 H         1 TXC1        0.0000
    111 H5E        -4.8430   -2.4870    8.8650 H         1 TXC1        0.0000
    112 CB6        -4.1500   -4.4310    9.5510 C.3       1 TXC1        0.0000
    113 H6D        -4.7690   -4.2340   10.4580 H         1 TXC1        0.0000
    114 H6E        -3.0950   -4.1950    9.8050 H         1 TXC1        0.0000
    115 CB7        -4.3040   -5.9250    9.2100 C.3       1 TXC1        0.0000
    116 H7D        -3.6000   -6.2180    8.4030 H         1 TXC1        0.0000
    117 H7E        -5.3360   -6.0750    8.8150 H         1 TXC1        0.0000
    118 CB8        -4.1450   -6.8610   10.4260 C.3       1 TXC1        0.0000
    119 H8D        -4.5940   -7.8390   10.1400 H         1 TXC1        0.0000
    120 H8E        -4.7630   -6.4550   11.2590 H         1 TXC1        0.0000
    121 CB9        -2.7180   -7.0470   10.8840 C.2       1 TXC1        0.0000
    122 H9D        -2.0380   -6.2080   10.6630 H         1 TXC1        0.0000
    123 CB10       -2.2320   -8.1330   11.5210 C.2       1 TXC1        0.0000
    124 H10D       -1.1710   -8.1470   11.8150 H         1 TXC1        0.0000
    125 CB11       -3.0130   -9.3660   11.9190 C.3       1 TXC1        0.0000
    126 H11D       -2.4520  -10.2770   11.6140 H         1 TXC1        0.0000
    127 H11E       -3.9990   -9.4230   11.4060 H         1 TXC1        0.0000
    128 CB12       -3.2830   -9.4530   13.4380 C.3       1 TXC1        0.0000
    129 H12D       -2.3200   -9.4650   13.9960 H         1 TXC1        0.0000
    130 H12E       -3.7970  -10.4200   13.6370 H         1 TXC1        0.0000
    131 CB13       -4.1680   -8.3120   13.9710 C.3       1 TXC1        0.0000
    132 H13D       -5.1090   -8.2730   13.3820 H         1 TXC1        0.0000
    133 H13E       -3.6410   -7.3440   13.8070 H         1 TXC1        0.0000
    134 CB14       -4.5020   -8.4230   15.4700 C.3       1 TXC1        0.0000
    135 H14D       -5.0640   -7.5100   15.7700 H         1 TXC1        0.0000
    136 H14E       -3.5510   -8.4310   16.0480 H         1 TXC1        0.0000
    137 CB15       -5.3370   -9.6520   15.8710 C.3       1 TXC1        0.0000
    138 H15D       -5.5170   -9.6010   16.9710 H         1 TXC1        0.0000
    139 H15E       -4.7450  -10.5740   15.6820 H         1 TXC1        0.0000
    140 CB16       -6.6900   -9.7670   15.1600 C.3       1 TXC1        0.0000
    141 H16D       -6.5500   -9.9140   14.0680 H         1 TXC1        0.0000
    142 H16E       -7.2910   -8.8450   15.3170 H         1 TXC1        0.0000
    143 H16F       -7.2640  -10.6320   15.5550 H         1 TXC1        0.0000
    144 CC3         2.6630   -5.4960    1.3940 C.3       1 TXC1        0.0000
    145 H3R         3.4840   -5.2950    2.1220 H         1 TXC1        0.0000
    146 H3S         3.0740   -6.1620    0.6000 H         1 TXC1        0.0000
    147 CC4         1.5550   -6.2420    2.1410 C.3       1 TXC1        0.0000
    148 H4R         1.9750   -7.2100    2.5010 H         1 TXC1        0.0000
    149 H4S         0.7200   -6.4810    1.4450 H         1 TXC1        0.0000
    150 CC5         1.0030   -5.4800    3.3550 C.3       1 TXC1        0.0000
    151 H5R         0.3500   -4.6500    3.0060 H         1 TXC1        0.0000
    152 H5S         1.8400   -5.0350    3.9380 H         1 TXC1        0.0000
    153 CC6         0.2050   -6.4200    4.2630 C.3       1 TXC1        0.0000
    154 H6R         0.9050   -7.1520    4.7250 H         1 TXC1        0.0000
    155 H6S        -0.5130   -6.9880    3.6280 H         1 TXC1        0.0000
    156 CC7        -0.5910   -5.7120    5.3650 C.3       1 TXC1        0.0000
    157 H7R        -1.2340   -4.9400    4.8830 H         1 TXC1        0.0000
    158 H7S         0.0990   -5.1830    6.0560 H         1 TXC1        0.0000
    159 CC8        -1.5050   -6.6830    6.1390 C.3       1 TXC1        0.0000
    160 H8R        -2.0880   -7.2790    5.4010 H         1 TXC1        0.0000
    161 H8S        -2.2460   -6.0770    6.6990 H         1 TXC1        0.0000
    162 CC9        -0.7870   -7.5720    7.1230 C.2       1 TXC1        0.0000
    163 H9R        -0.6830   -7.1460    8.1340 H         1 TXC1        0.0000
    164 CC10       -0.3140   -8.8120    6.9000 C.2       1 TXC1        0.0000
    165 H10R        0.1700   -9.3370    7.7340 H         1 TXC1        0.0000
    166 CC11       -0.3280   -9.5870    5.6040 C.3       1 TXC1        0.0000
    167 H11R        0.7130   -9.8740    5.3320 H         1 TXC1        0.0000
    168 H11S       -0.7060   -8.9660    4.7630 H         1 TXC1        0.0000
    169 CC12       -1.1880  -10.8680    5.6360 C.3       1 TXC1        0.0000
    170 H12R       -1.0850  -11.3590    4.6400 H         1 TXC1        0.0000
    171 H12S       -2.2590  -10.5920    5.7570 H         1 TXC1        0.0000
    172 CC13       -0.7760  -11.8820    6.7200 C.3       1 TXC1        0.0000
    173 H13R        0.2770  -11.6880    7.0190 H         1 TXC1        0.0000
    174 H13S       -0.8100  -12.9090    6.2910 H         1 TXC1        0.0000
    175 CC14       -1.6920  -11.8530    7.9550 C.3       1 TXC1        0.0000
    176 H14R       -1.8620  -10.7980    8.2630 H         1 TXC1        0.0000
    177 H14S       -1.1880  -12.3770    8.7990 H         1 TXC1        0.0000
    178 CC15       -3.0470  -12.5340    7.7070 C.3       1 TXC1        0.0000
    179 H15R       -2.8730  -13.6220    7.5350 H         1 TXC1        0.0000
    180 H15S       -3.5010  -12.1240    6.7770 H         1 TXC1        0.0000
    181 CC16       -4.0390  -12.3510    8.8580 C.3       1 TXC1        0.0000
    182 H16R       -4.2690  -11.2730    9.0000 H         1 TXC1        0.0000
    183 H16S       -3.6170  -12.7480    9.8060 H         1 TXC1        0.0000
    184 H16T       -4.9890  -12.8870    8.6420 H         1 TXC1        0.0000
    185 CD3         5.3300   -5.1350    4.5380 C.3       1 TXC1        0.0000
    186 H3X         5.7090   -5.4280    3.5320 H         1 TXC1        0.0000
    187 H3Y         4.2990   -4.7380    4.4020 H         1 TXC1        0.0000
    188 CD4         5.2620   -6.3850    5.4280 C.3       1 TXC1        0.0000
    189 H4X         4.8180   -6.1210    6.4130 H         1 TXC1        0.0000
    190 H4Y         6.2980   -6.7500    5.6090 H         1 TXC1        0.0000
    191 CD5         4.4480   -7.5120    4.7780 C.3       1 TXC1        0.0000
    192 H5X         4.8510   -7.6730    3.7510 H         1 TXC1        0.0000
    193 H5Y         3.3860   -7.1980    4.6750 H         1 TXC1        0.0000
    194 CD6         4.5240   -8.8500    5.5310 C.3       1 TXC1        0.0000
    195 H6X         5.5870   -9.0910    5.7550 H         1 TXC1        0.0000
    196 H6Y         4.1380   -9.6470    4.8550 H         1 TXC1        0.0000
    197 CD7         3.6990   -8.8930    6.8270 C.3       1 TXC1        0.0000
    198 H7X         2.6620   -8.5610    6.5940 H         1 TXC1        0.0000
    199 H7Y         4.1280   -8.1760    7.5640 H         1 TXC1        0.0000
    200 CD8         3.6620  -10.3100    7.4350 C.3       1 TXC1        0.0000
    201 H8X         4.7110  -10.6320    7.6150 H         1 TXC1        0.0000
    202 H8Y         3.2520  -11.0090    6.6710 H         1 TXC1        0.0000
    203 CD9         2.8260  -10.3860    8.6900 C.2       1 TXC1        0.0000
    204 H9X         1.7410  -10.4130    8.5180 H         1 TXC1        0.0000
    205 CD10        3.2750  -10.4550    9.9580 C.2       1 TXC1        0.0000
    206 H10X        2.5400  -10.5020   10.7770 H         1 TXC1        0.0000
    207 CD11        4.7150  -10.4500   10.4080 C.3       1 TXC1        0.0000
    208 H11X        4.8900   -9.5980   11.1000 H         1 TXC1        0.0000
    209 H11Y        5.4240  -10.3090    9.5630 H         1 TXC1        0.0000
    210 CD12        5.0910  -11.7550   11.1360 C.3       1 TXC1        0.0000
    211 H12X        4.8860  -12.6300   10.4770 H         1 TXC1        0.0000
    212 H12Y        4.4610  -11.8580   12.0470 H         1 TXC1        0.0000
    213 CD13        6.5750  -11.7780   11.5300 C.3       1 TXC1        0.0000
    214 H13X        6.8240  -10.8480   12.0900 H         1 TXC1        0.0000
    215 H13Y        7.1820  -11.7760   10.5960 H         1 TXC1        0.0000
    216 CD14        6.9820  -12.9910   12.3810 C.3       1 TXC1        0.0000
    217 H14X        8.0920  -12.9950   12.4700 H         1 TXC1        0.0000
    218 H14Y        6.6840  -13.9300   11.8650 H         1 TXC1        0.0000
    219 CD15        6.3880  -12.9710   13.7970 C.3       1 TXC1        0.0000
    220 H15X        5.2880  -13.1360   13.7330 H         1 TXC1        0.0000
    221 H15Y        6.5500  -11.9610   14.2370 H         1 TXC1        0.0000
    222 CD16        7.0030  -14.0210   14.7270 C.3       1 TXC1        0.0000
    223 H16X        8.0960  -13.8500   14.8350 H         1 TXC1        0.0000
    224 H16Y        6.8480  -15.0430   14.3200 H         1 TXC1        0.0000
    225 H16Z        6.5410  -13.9680   15.7360 H         1 TXC1        0.0000
@<TRIPOS>BOND
     1   15   14 1 
     2   49   48 2 
     3   13   12 1 
     4    3    1 1 
     5    6    4 2 
     6   11    9 1 
     7   14   12 1 
     8    7    1 1 
     9    7    4 1 
    10   10    9 1 
    11   12    1 1 
    12   12   16 1 
    13   51   50 1 
    14    1    2 1 
    15    9    8 1 
    16    9   45 1 
    17   48   50 1 
    18   48   47 1 
    19    4    8 1 
    20    4    5 1 
    21   46   45 1 
    22  146  144 1 
    23   50  144 1 
    24   50   52 1 
    25   45   47 1 
    26   45   53 1 
    27   18   16 1 
    28   16   23 1 
    29   16   17 1 
    30   23   19 1 
    31  144  145 1 
    32  144  147 1 
    33  149  147 1 
    34   55   53 1 
    35  147  148 1 
    36  147  150 1 
    37   53   54 1 
    38   53   56 1 
    39   21   20 1 
    40   19   22 2 
    41   19   20 1 
    42   19   24 1 
    43  151  150 1 
    44   56   57 1 
    45  150  152 1 
    46  150  153 1 
    47  186  185 1 
    48  155  153 1 
    49   24   25 1 
    50  192  191 1 
    51  153  154 1 
    52  153  156 1 
    53   57   58 2 
    54   57   59 1 
    55  187  185 1 
    56   34   33 1 
    57  185   59 1 
    58  185  188 1 
    59  170  169 1 
    60  193  191 1 
    61   35   33 1 
    62  168  166 1 
    63  191  188 1 
    64  191  194 1 
    65  196  194 1 
    66  157  156 1 
    67   25   27 1 
    68   25   26 1 
    69   25   28 1 
    70   59   61 1 
    71   59   60 1 
    72   33   31 1 
    73   33   62 1 
    74  167  166 1 
    75  156  158 1 
    76  156  159 1 
    77  160  159 1 
    78  188  190 1 
    79  188  189 1 
    80   64   62 1 
    81  194  195 1 
    82  194  197 1 
    83   30   31 1 
    84   30   28 1 
    85  166  169 1 
    86  166  164 1 
    87  169  171 1 
    88  169  172 1 
    89   29   28 1 
    90   31   32 2 
    91   28   36 1 
    92  159  161 1 
    93  159  162 1 
    94   62   63 1 
    95   62   65 1 
    96  174  172 1 
    97  108  106 1 
    98  198  197 1 
    99  105  103 1 
   100  202  200 1 
   101   66   65 1 
   102  172  173 1 
   103  172  175 1 
   104  180  178 1 
   105  197  200 1 
   106  197  199 1 
   107  107  106 1 
   108  164  162 2 
   109  164  165 1 
   110   43   42 1 
   111   70   68 1 
   112  162  163 1 
   113   65   68 1 
   114   65   67 1 
   115  106  103 1 
   116  106  109 1 
   117  200  201 1 
   118  200  203 1 
   119   36   39 1 
   120   36   37 1 
   121   36   38 1 
   122  103   42 1 
   123  103  104 1 
   124  179  178 1 
   125   39   40 1 
   126  178  175 1 
   127  178  181 1 
   128   42   40 1 
   129   42   44 1 
   130   68   69 1 
   131   68   71 1 
   132  175  176 1 
   133  175  177 1 
   134   40   41 2 
   135  110  109 1 
   136   72   71 1 
   137  116  115 1 
   138  109  111 1 
   139  109  112 1 
   140   75   74 1 
   141  204  203 1 
   142  184  181 1 
   143  203  205 2 
   144  117  115 1 
   145   71   74 1 
   146   71   73 1 
   147  181  182 1 
   148  181  183 1 
   149  115  112 1 
   150  115  118 1 
   151   74   76 1 
   152   74   77 1 
   153  112  114 1 
   154  112  113 1 
   155  209  207 1 
   156   78   77 1 
   157  205  207 1 
   158  205  206 1 
   159  119  118 1 
   160   77   79 1 
   161   77   80 1 
   162  207  208 1 
   163  207  210 1 
   164  118  121 1 
   165  118  120 1 
   166  211  210 1 
   167  215  213 1 
   168  122  121 1 
   169  121  123 2 
   170  210  213 1 
   171  210  212 1 
   172   81   80 1 
   173  127  125 1 
   174   80   82 2 
   175  123  124 1 
   176  123  125 1 
   177  213  214 1 
   178  213  216 1 
   179  126  125 1 
   180  218  216 1 
   181  125  128 1 
   182   86   84 1 
   183  216  217 1 
   184  216  219 1 
   185   88   87 1 
   186   82   84 1 
   187   82   83 1 
   188   84   87 1 
   189   84   85 1 
   190   95   93 1 
   191   92   90 1 
   192  132  131 1 
   193  128  130 1 
   194  128  131 1 
   195  128  129 1 
   196   87   90 1 
   197   87   89 1 
   198  220  219 1 
   199  219  221 1 
   200  219  222 1 
   201  133  131 1 
   202  131  134 1 
   203   90   93 1 
   204   90   91 1 
   205  141  140 1 
   206   93   94 1 
   207   93   96 1 
   208  224  222 1 
   209  222  223 1 
   210  222  225 1 
   211   98   96 1 
   212   96   97 1 
   213   96   99 1 
   214  140  142 1 
   215  140  143 1 
   216  140  137 1 
   217  134  135 1 
   218  134  137 1 
   219  134  136 1 
   220  139  137 1 
   221  137  138 1 
   222   99  100 1 
   223   99  101 1 
   224   99  102 1 
