@<TRIPOS>MOLECULE
C:\Users\Praveer\PycharmProjects\pdb_to_mol2_converter\data\pdb\txcl2.pdb
  224   223     0     0     0
SMALL
GASTEIGER

@<TRIPOS>ATOM
      1 C3          1.4870    0.1330    0.1870 C.3       1 TXC1        0.0000
      2 HG31        1.6620   -0.4160    1.1420 H         1 TXC1        0.0000
      3 HG32        1.9480   -0.4480   -0.6450 H         1 TXC1        0.0000
      4 P3          3.5760    1.6300    0.6330 P.3       1 TXC1        0.0000
      5 OP33        3.8350    0.9670    1.9300 O.3       1 TXC1        0.0000
      6 OP34        3.9490    3.0530    0.4980 O.2       1 TXC1        0.0000
      7 OP31        2.0430    1.4570    0.2370 O.3       1 TXC1        0.0000
      8 OP32        4.3140    0.8160   -0.5160 O.3       1 TXC1        0.0000
      9 C31         4.1470    1.2540   -1.8670 C.3       1 TXC1        0.0000
     10 H31J        4.4880    2.3090   -1.9880 H         1 TXC1        0.0000
     11 H31K        3.0730    1.2120   -2.1620 H         1 TXC1        0.0000
     12 C2         -0.0470    0.1690   -0.0570 C.3       1 TXC1        0.0000
     13 HG22       -0.5290    0.6630    0.8180 H         1 TXC1        0.0000
     14 OG12       -0.2570    0.9660   -1.2150 O.3       1 TXC1        0.0000
     15 HO12        0.4750    1.5910   -1.1310 H         1 TXC1        0.0000
     16 C1         -0.6420   -1.2600   -0.2390 C.3       1 TXC1        0.0000
     17 HG11       -0.1090   -1.9500    0.4520 H         1 TXC1        0.0000
     18 HG12       -0.3930   -1.5940   -1.2710 H         1 TXC1        0.0000
     19 P1         -2.7420   -1.3640    1.3740 P.3       1 TXC1        0.0000
     20 OP13       -2.7850    0.0020    1.9350 O.3       1 TXC1        0.0000
     21 OP14       -4.0280   -2.0930    1.2810 O.2       1 TXC1        0.0000
     22 OP11       -2.0620   -1.3390   -0.0610 O.3       1 TXC1        0.0000
     23 OP12       -1.7170   -2.2180    2.2390 O.3       1 TXC1        0.0000
     24 C11        -1.9490   -3.5820    2.5800 C.3       1 TXC1        0.0000
     25 H11J       -3.0240   -3.7880    2.7970 H         1 TXC1        0.0000
     26 H11K       -1.3810   -3.7960    3.5120 H         1 TXC1        0.0000
     27 C12        -1.4460   -4.5450    1.4740 C.3       1 TXC1        0.0000
     28 H12J       -0.4430   -4.1700    1.1520 H         1 TXC1        0.0000
     29 O12        -2.4120   -4.5390    0.4110 O.3       1 TXC1        0.0000
     30 CA1        -1.9330   -4.5580   -0.8140 C.2       1 TXC1        0.0000
     31 OA1        -0.7600   -4.7140   -1.1280 O.2       1 TXC1        0.0000
     32 CA2        -3.0990   -4.4390   -1.7970 C.3       1 TXC1        0.0000
     33 H2A        -3.5820   -3.4540   -1.6200 H         1 TXC1        0.0000
     34 H2B        -3.8250   -5.2390   -1.5470 H         1 TXC1        0.0000
     35 C13        -1.2850   -5.9910    2.0190 C.3       1 TXC1        0.0000
     36 H13J       -2.2830   -6.3040    2.4010 H         1 TXC1        0.0000
     37 H13K       -0.5860   -5.9890    2.8860 H         1 TXC1        0.0000
     38 O13        -0.8820   -6.9150    0.9860 O.3       1 TXC1        0.0000
     39 CB1         0.4210   -6.9160    0.7240 C.2       1 TXC1        0.0000
     40 OB1         1.2850   -6.3980    1.4070 O.2       1 TXC1        0.0000
     41 CB2         0.6520   -7.6820   -0.5750 C.3       1 TXC1        0.0000
     42 H2D         0.0220   -7.2000   -1.3540 H         1 TXC1        0.0000
     43 H2E         0.3050   -8.7240   -0.4310 H         1 TXC1        0.0000
     44 C32         4.9690    0.3670   -2.8470 C.3       1 TXC1        0.0000
     45 H32J        4.7030    0.6760   -3.8870 H         1 TXC1        0.0000
     46 O32         4.7120   -1.0380   -2.6610 O.3       1 TXC1        0.0000
     47 CC1         3.5050   -1.4330   -3.0290 C.2       1 TXC1        0.0000
     48 OC1         2.6790   -0.7380   -3.6010 O.2       1 TXC1        0.0000
     49 CC2         3.4190   -2.9500   -2.7940 C.3       1 TXC1        0.0000
     50 H2R         3.9990   -3.1800   -1.8730 H         1 TXC1        0.0000
     51 H2S         3.9260   -3.4390   -3.6490 H         1 TXC1        0.0000
     52 C33         6.4960    0.5970   -2.7020 C.3       1 TXC1        0.0000
     53 H33J        6.8210    0.2590   -1.6900 H         1 TXC1        0.0000
     54 H33K        6.6880    1.6910   -2.7600 H         1 TXC1        0.0000
     55 O33         7.1830   -0.0570   -3.7930 O.3       1 TXC1        0.0000
     56 CD1         7.6670   -1.2670   -3.5370 C.2       1 TXC1        0.0000
     57 OD1         7.9190   -1.7310   -2.4440 O.2       1 TXC1        0.0000
     58 CD2         7.7810   -2.0380   -4.8560 C.3       1 TXC1        0.0000
     59 H2X         6.8870   -1.7800   -5.4600 H         1 TXC1        0.0000
     60 H2Y         7.7310   -3.1200   -4.6160 H         1 TXC1        0.0000
     61 CA3        -2.6610   -4.5670   -3.2750 C.3       1 TXC1        0.0000
     62 H3A        -2.0440   -5.4860   -3.3950 H         1 TXC1        0.0000
     63 H3B        -2.0280   -3.6900   -3.5390 H         1 TXC1        0.0000
     64 CA4        -3.8510   -4.6300   -4.2450 C.3       1 TXC1        0.0000
     65 H4A        -4.4910   -3.7340   -4.0670 H         1 TXC1        0.0000
     66 H4B        -4.4620   -5.5310   -4.0180 H         1 TXC1        0.0000
     67 CA5        -3.4410   -4.6520   -5.7300 C.3       1 TXC1        0.0000
     68 H5A        -2.8750   -3.7190   -5.9480 H         1 TXC1        0.0000
     69 H5B        -4.3620   -4.6410   -6.3550 H         1 TXC1        0.0000
     70 CA6        -2.5970   -5.8780   -6.1210 C.3       1 TXC1        0.0000
     71 H6A        -3.1730   -6.7970   -5.8700 H         1 TXC1        0.0000
     72 H6B        -1.6620   -5.8890   -5.5180 H         1 TXC1        0.0000
     73 CA7        -2.2030   -5.9260   -7.6090 C.3       1 TXC1        0.0000
     74 H7A        -3.1220   -5.9570   -8.2390 H         1 TXC1        0.0000
     75 H7B        -1.6440   -6.8760   -7.7780 H         1 TXC1        0.0000
     76 CA8        -1.3250   -4.7340   -8.0380 C.3       1 TXC1        0.0000
     77 H8A        -0.5000   -4.6220   -7.3010 H         1 TXC1        0.0000
     78 H8B        -1.9310   -3.8040   -7.9660 H         1 TXC1        0.0000
     79 CA9        -0.7490   -4.9150   -9.4220 C.2       1 TXC1        0.0000
     80 H9A         0.1730   -5.5160   -9.4640 H         1 TXC1        0.0000
     81 CA10       -1.2440   -4.4050  -10.5660 C.2       1 TXC1        0.0000
     82 H10A       -0.7220   -4.6260  -11.5110 H         1 TXC1        0.0000
     83 CA11       -2.4930   -3.5670  -10.7120 C.3       1 TXC1        0.0000
     84 H11A       -2.2360   -2.5780  -11.1530 H         1 TXC1        0.0000
     85 H11B       -2.9740   -3.3630   -9.7290 H         1 TXC1        0.0000
     86 CA12       -3.5480   -4.2530  -11.6010 C.3       1 TXC1        0.0000
     87 H12A       -3.7320   -5.2810  -11.2060 H         1 TXC1        0.0000
     88 H12B       -3.1600   -4.3570  -12.6390 H         1 TXC1        0.0000
     89 CA13       -4.9060   -3.5240  -11.6230 C.3       1 TXC1        0.0000
     90 H13A       -5.2920   -3.4830  -10.5790 H         1 TXC1        0.0000
     91 H13B       -5.6260   -4.1290  -12.2210 H         1 TXC1        0.0000
     92 CA14       -4.8930   -2.0910  -12.1890 C.3       1 TXC1        0.0000
     93 H14A       -4.1740   -1.4640  -11.6200 H         1 TXC1        0.0000
     94 H14B       -5.9050   -1.6500  -12.0370 H         1 TXC1        0.0000
     95 CA15       -4.5710   -2.0140  -13.6890 C.3       1 TXC1        0.0000
     96 H15A       -5.2940   -2.6600  -14.2390 H         1 TXC1        0.0000
     97 H15B       -3.5530   -2.4270  -13.8660 H         1 TXC1        0.0000
     98 CA16       -4.6420   -0.5940  -14.2610 C.3       1 TXC1        0.0000
     99 H16A       -3.8910    0.0620  -13.7710 H         1 TXC1        0.0000
    100 H16B       -5.6500   -0.1560  -14.0960 H         1 TXC1        0.0000
    101 H16C       -4.4400   -0.6020  -15.3540 H         1 TXC1        0.0000
    102 CB3         2.1270   -7.6470   -1.0270 C.3       1 TXC1        0.0000
    103 H3D         2.7510   -8.2680   -0.3460 H         1 TXC1        0.0000
    104 H3E         2.5040   -6.5980   -0.9640 H         1 TXC1        0.0000
    105 CB4         2.3030   -8.1180   -2.4780 C.3       1 TXC1        0.0000
    106 H4D         3.3600   -7.9380   -2.7770 H         1 TXC1        0.0000
    107 H4E         1.6520   -7.4990   -3.1370 H         1 TXC1        0.0000
    108 CB5         1.9720   -9.6050   -2.6810 C.3       1 TXC1        0.0000
    109 H5D         0.9580   -9.8250   -2.2770 H         1 TXC1        0.0000
    110 H5E         2.7050  -10.2130   -2.1040 H         1 TXC1        0.0000
    111 CB6         2.0000  -10.0480   -4.1530 C.3       1 TXC1        0.0000
    112 H6D         1.1700   -9.5490   -4.7020 H         1 TXC1        0.0000
    113 H6E         1.8080  -11.1440   -4.1840 H         1 TXC1        0.0000
    114 CB7         3.3240   -9.7330   -4.8680 C.3       1 TXC1        0.0000
    115 H7D         4.1780  -10.0930   -4.2500 H         1 TXC1        0.0000
    116 H7E         3.4200   -8.6260   -4.9530 H         1 TXC1        0.0000
    117 CB8         3.4140  -10.3290   -6.2870 C.3       1 TXC1        0.0000
    118 H8D         4.2540   -9.8200   -6.8110 H         1 TXC1        0.0000
    119 H8E         2.4840  -10.0680   -6.8390 H         1 TXC1        0.0000
    120 CB9         3.6050  -11.8280   -6.2520 C.2       1 TXC1        0.0000
    121 H9D         2.8160  -12.3810   -5.7180 H         1 TXC1        0.0000
    122 CB10        4.6400  -12.5220   -6.7590 C.2       1 TXC1        0.0000
    123 H10D        4.6560  -13.6160   -6.6320 H         1 TXC1        0.0000
    124 CB11        5.8170  -11.9550   -7.5120 C.3       1 TXC1        0.0000
    125 H11D        5.5140  -11.0690   -8.1160 H         1 TXC1        0.0000
    126 H11E        6.2000  -12.7070   -8.2370 H         1 TXC1        0.0000
    127 CB12        6.9750  -11.5270   -6.5870 C.3       1 TXC1        0.0000
    128 H12D        6.6340  -10.6990   -5.9240 H         1 TXC1        0.0000
    129 H12E        7.7940  -11.1300   -7.2290 H         1 TXC1        0.0000
    130 CB13        7.5510  -12.6600   -5.7190 C.3       1 TXC1        0.0000
    131 H13D        7.6570  -13.5770   -6.3430 H         1 TXC1        0.0000
    132 H13E        6.8390  -12.8930   -4.8960 H         1 TXC1        0.0000
    133 CB14        8.9310  -12.3290   -5.1220 C.3       1 TXC1        0.0000
    134 H14D        9.6670  -12.2330   -5.9520 H         1 TXC1        0.0000
    135 H14E        9.2590  -13.1780   -4.4810 H         1 TXC1        0.0000
    136 CB15        8.9720  -11.0390   -4.2890 C.3       1 TXC1        0.0000
    137 H15D        8.1800  -11.0870   -3.5070 H         1 TXC1        0.0000
    138 H15E        8.7400  -10.1710   -4.9470 H         1 TXC1        0.0000
    139 CB16       10.3310  -10.8050   -3.6190 C.3       1 TXC1        0.0000
    140 H16D       11.1370  -10.7640   -4.3830 H         1 TXC1        0.0000
    141 H16E       10.5620  -11.6310   -2.9120 H         1 TXC1        0.0000
    142 H16F       10.3330   -9.8490   -3.0540 H         1 TXC1        0.0000
    143 CC3         1.9930   -3.5370   -2.6290 C.3       1 TXC1        0.0000
    144 H3R         1.5410   -3.1670   -1.6800 H         1 TXC1        0.0000
    145 H3S         2.0930   -4.6420   -2.5250 H         1 TXC1        0.0000
    146 CC4         1.0010   -3.2620   -3.7760 C.3       1 TXC1        0.0000
    147 H4R         0.6180   -2.2210   -3.6480 H         1 TXC1        0.0000
    148 H4S         0.1320   -3.9440   -3.6550 H         1 TXC1        0.0000
    149 CC5         1.5560   -3.3900   -5.2050 C.3       1 TXC1        0.0000
    150 H5R         2.4160   -2.6970   -5.3240 H         1 TXC1        0.0000
    151 H5S         0.7670   -3.0350   -5.9080 H         1 TXC1        0.0000
    152 CC6         1.9640   -4.8130   -5.6180 C.3       1 TXC1        0.0000
    153 H6R         1.0480   -5.4460   -5.6090 H         1 TXC1        0.0000
    154 H6S         2.6770   -5.2420   -4.8810 H         1 TXC1        0.0000
    155 CC7         2.5900   -4.8450   -7.0240 C.3       1 TXC1        0.0000
    156 H7R         1.9990   -4.1610   -7.6750 H         1 TXC1        0.0000
    157 H7S         2.5000   -5.8710   -7.4480 H         1 TXC1        0.0000
    158 CC8         4.0810   -4.4420   -7.0260 C.3       1 TXC1        0.0000
    159 H8R         4.6690   -5.2830   -6.5930 H         1 TXC1        0.0000
    160 H8S         4.2150   -3.5830   -6.3330 H         1 TXC1        0.0000
    161 CC9         4.5920   -4.0480   -8.3910 C.2       1 TXC1        0.0000
    162 H9R         4.5160   -2.9720   -8.6140 H         1 TXC1        0.0000
    163 CC10        5.1300   -4.8540   -9.3260 C.2       1 TXC1        0.0000
    164 H10R        5.4700   -4.4010  -10.2690 H         1 TXC1        0.0000
    165 CC11        5.3070   -6.3510   -9.2480 C.3       1 TXC1        0.0000
    166 H11R        4.8510   -6.7640   -8.3200 H         1 TXC1        0.0000
    167 H11S        6.3890   -6.6120   -9.2170 H         1 TXC1        0.0000
    168 CC12        4.6720   -7.0800  -10.4510 C.3       1 TXC1        0.0000
    169 H12R        3.6300   -6.7240  -10.6110 H         1 TXC1        0.0000
    170 H12S        4.6130   -8.1650  -10.2030 H         1 TXC1        0.0000
    171 CC13        5.4760   -6.9520  -11.7570 C.3       1 TXC1        0.0000
    172 H13R        6.4890   -7.3810  -11.5860 H         1 TXC1        0.0000
    173 H13S        5.6020   -5.8820  -12.0340 H         1 TXC1        0.0000
    174 CC14        4.8000   -7.6920  -12.9220 C.3       1 TXC1        0.0000
    175 H14R        3.8670   -7.1450  -13.1870 H         1 TXC1        0.0000
    176 H14S        4.5080   -8.7130  -12.5840 H         1 TXC1        0.0000
    177 CC15        5.6850   -7.8260  -14.1700 C.3       1 TXC1        0.0000
    178 H15R        6.1620   -6.8450  -14.3950 H         1 TXC1        0.0000
    179 H15S        5.0310   -8.0840  -15.0360 H         1 TXC1        0.0000
    180 CC16        6.7580   -8.9110  -14.0380 C.3       1 TXC1        0.0000
    181 H16R        6.2840   -9.8940  -13.8220 H         1 TXC1        0.0000
    182 H16S        7.4600   -8.6740  -13.2110 H         1 TXC1        0.0000
    183 H16T        7.3420   -9.0020  -14.9790 H         1 TXC1        0.0000
    184 CD3         9.0770   -1.7280   -5.6410 C.3       1 TXC1        0.0000
    185 H3X         9.9310   -2.2270   -5.1270 H         1 TXC1        0.0000
    186 H3Y         9.2770   -0.6310   -5.6430 H         1 TXC1        0.0000
    187 CD4         9.0150   -2.2030   -7.1030 C.3       1 TXC1        0.0000
    188 H4X         8.6360   -3.2490   -7.1340 H         1 TXC1        0.0000
    189 H4Y        10.0440   -2.2060   -7.5290 H         1 TXC1        0.0000
    190 CD5         8.1340   -1.3050   -7.9870 C.3       1 TXC1        0.0000
    191 H5X         8.5650   -0.2800   -8.0110 H         1 TXC1        0.0000
    192 H5Y         7.1200   -1.2300   -7.5360 H         1 TXC1        0.0000
    193 CD6         7.9770   -1.8180   -9.4260 C.3       1 TXC1        0.0000
    194 H6X         7.6140   -2.8710   -9.3930 H         1 TXC1        0.0000
    195 H6Y         8.9640   -1.8170   -9.9370 H         1 TXC1        0.0000
    196 CD7         6.9690   -0.9750  -10.2240 C.3       1 TXC1        0.0000
    197 H7X         7.3500    0.0640  -10.3370 H         1 TXC1        0.0000
    198 H7Y         6.0300   -0.9170   -9.6270 H         1 TXC1        0.0000
    199 CD8         6.6090   -1.5670  -11.6000 C.3       1 TXC1        0.0000
    200 H8X         5.7060   -1.0320  -11.9720 H         1 TXC1        0.0000
    201 H8Y         6.3210   -2.6330  -11.4600 H         1 TXC1        0.0000
    202 CD9         7.7120   -1.4450  -12.6200 C.2       1 TXC1        0.0000
    203 H9X         8.6200   -0.9180  -12.2870 H         1 TXC1        0.0000
    204 CD10        7.6380   -1.9000  -13.8830 C.2       1 TXC1        0.0000
    205 H10X        8.4980   -1.7530  -14.5530 H         1 TXC1        0.0000
    206 CD11        6.4690   -2.6480  -14.4830 C.3       1 TXC1        0.0000
    207 H11X        5.9320   -2.0060  -15.2160 H         1 TXC1        0.0000
    208 H11Y        5.7250   -2.9340  -13.7050 H         1 TXC1        0.0000
    209 CD12        6.9160   -3.9410  -15.1940 C.3       1 TXC1        0.0000
    210 H12X        6.0170   -4.5780  -15.3630 H         1 TXC1        0.0000
    211 H12Y        7.6040   -4.5150  -14.5350 H         1 TXC1        0.0000
    212 CD13        7.5690   -3.6880  -16.5630 C.3       1 TXC1        0.0000
    213 H13X        8.3710   -2.9230  -16.4780 H         1 TXC1        0.0000
    214 H13Y        6.7860   -3.2730  -17.2390 H         1 TXC1        0.0000
    215 CD14        8.1570   -4.9550  -17.2050 C.3       1 TXC1        0.0000
    216 H14X        8.3200   -4.7600  -18.2900 H         1 TXC1        0.0000
    217 H14Y        7.4240   -5.7870  -17.1180 H         1 TXC1        0.0000
    218 CD15        9.5000   -5.3790  -16.5930 C.3       1 TXC1        0.0000
    219 H15X        9.3630   -5.5650  -15.5040 H         1 TXC1        0.0000
    220 H15Y       10.2200   -4.5340  -16.6970 H         1 TXC1        0.0000
    221 CD16       10.1020   -6.6290  -17.2410 C.3       1 TXC1        0.0000
    222 H16X       10.2540   -6.4700  -18.3310 H         1 TXC1        0.0000
    223 H16Y        9.4290   -7.5020  -17.1040 H         1 TXC1        0.0000
    224 H16Z       11.0860   -6.8690  -16.7830 H         1 TXC1        0.0000
@<TRIPOS>BOND
     1  222  221 1 
     2  216  215 1 
     3  221  223 1 
     4  221  224 1 
     5  221  218 1 
     6  214  212 1 
     7  215  217 1 
     8  215  218 1 
     9  215  212 1 
    10  220  218 1 
    11  218  219 1 
    12  212  213 1 
    13  212  209 1 
    14  210  209 1 
    15  101   98 1 
    16  207  206 1 
    17  209  211 1 
    18  209  206 1 
    19  179  177 1 
    20  183  180 1 
    21  205  204 1 
    22  206  204 1 
    23  206  208 1 
    24  178  177 1 
    25   98  100 1 
    26   98   99 1 
    27   98   95 1 
    28   96   95 1 
    29  177  180 1 
    30  177  174 1 
    31  180  181 1 
    32  180  182 1 
    33  204  202 2 
    34   97   95 1 
    35   95   92 1 
    36  175  174 1 
    37  174  176 1 
    38  174  171 1 
    39   88   86 1 
    40  202  203 1 
    41  202  199 1 
    42   91   89 1 
    43   92   94 1 
    44   92   89 1 
    45   92   93 1 
    46  173  171 1 
    47  200  199 1 
    48  171  172 1 
    49  171  168 1 
    50   89   86 1 
    51   89   90 1 
    52   86   87 1 
    53   86   83 1 
    54  199  201 1 
    55  199  196 1 
    56   82   81 1 
    57   84   83 1 
    58   83   81 1 
    59   83   85 1 
    60  169  168 1 
    61   81   79 2 
    62  168  170 1 
    63  168  165 1 
    64  197  196 1 
    65  164  163 1 
    66  196  198 1 
    67  196  193 1 
    68  195  193 1 
    69   80   79 1 
    70  193  194 1 
    71  193  190 1 
    72   79   76 1 
    73  163  165 1 
    74  163  161 2 
    75  165  167 1 
    76  165  166 1 
    77  162  161 1 
    78  161  158 1 
    79   74   73 1 
    80  126  124 1 
    81  125  124 1 
    82   76   78 1 
    83   76   73 1 
    84   76   77 1 
    85  191  190 1 
    86  190  192 1 
    87  190  187 1 
    88   75   73 1 
    89  156  155 1 
    90   73   70 1 
    91  189  187 1 
    92  124  122 1 
    93  124  127 1 
    94  157  155 1 
    95  129  127 1 
    96  188  187 1 
    97  187  184 1 
    98  158  155 1 
    99  158  159 1 
   100  158  160 1 
   101  155  152 1 
   102  119  117 1 
   103  118  117 1 
   104  122  123 1 
   105  122  120 2 
   106  127  128 1 
   107  127  130 1 
   108   69   67 1 
   109  131  130 1 
   110  117  120 1 
   111  117  114 1 
   112  120  121 1 
   113   70   71 1 
   114   70   67 1 
   115   70   72 1 
   116  134  133 1 
   117   68   67 1 
   118  151  149 1 
   119   67   64 1 
   120  130  133 1 
   121  130  132 1 
   122  186  184 1 
   123  184  185 1 
   124  184   58 1 
   125  152  153 1 
   126  152  149 1 
   127  152  154 1 
   128   59   58 1 
   129  150  149 1 
   130  149  146 1 
   131  133  135 1 
   132  133  136 1 
   133  116  114 1 
   134  138  136 1 
   135  114  115 1 
   136  114  111 1 
   137   58   60 1 
   138   58   56 1 
   139  112  111 1 
   140  140  139 1 
   141  136  139 1 
   142  136  137 1 
   143   64   65 1 
   144   64   66 1 
   145   64   61 1 
   146  113  111 1 
   147  111  108 1 
   148   45   44 1 
   149   55   56 1 
   150   55   52 1 
   151  146  148 1 
   152  146  147 1 
   153  146  143 1 
   154   51   49 1 
   155  139  142 1 
   156  139  141 1 
   157   48   47 2 
   158   63   61 1 
   159   56   57 2 
   160   62   61 1 
   161   61   32 1 
   162  107  105 1 
   163   47   49 1 
   164   47   46 1 
   165   44   52 1 
   166   44   46 1 
   167   44    9 1 
   168   49  143 1 
   169   49   50 1 
   170  106  105 1 
   171   54   52 1 
   172   52   53 1 
   173  108  105 1 
   174  108  109 1 
   175  108  110 1 
   176  143  145 1 
   177  143  144 1 
   178  105  102 1 
   179   11    9 1 
   180   10    9 1 
   181    9    8 1 
   182   32   33 1 
   183   32   34 1 
   184   32   30 1 
   185   42   41 1 
   186   18   16 1 
   187   14   15 1 
   188   14   12 1 
   189   31   30 2 
   190  102  104 1 
   191  102   41 1 
   192  102  103 1 
   193   30   29 1 
   194    3    1 1 
   195   41   43 1 
   196   41   39 1 
   197    8    4 1 
   198   16   22 1 
   199   16   12 1 
   200   16   17 1 
   201   22   19 1 
   202   12    1 1 
   203   12   13 1 
   204    1    7 1 
   205    1    2 1 
   206    7    4 1 
   207   29   27 1 
   208    6    4 2 
   209    4    5 1 
   210   39   38 1 
   211   39   40 2 
   212   38   35 1 
   213   28   27 1 
   214   21   19 2 
   215   19   20 1 
   216   19   23 1 
   217   27   35 1 
   218   27   24 1 
   219   35   36 1 
   220   35   37 1 
   221   23   24 1 
   222   24   25 1 
   223   24   26 1 
