@<TRIPOS>MOLECULE
C:\Users\Praveer\PycharmProjects\pdb_to_mol2_converter\data\pdb\udca.pdb
   67    70     0     0     0
SMALL
GASTEIGER

@<TRIPOS>ATOM
      1 C3          2.1640    1.3720   -0.1110 C.3       1 UDC1        0.0000
      2 O3          3.5340    1.2340   -0.4470 O.3       1 UDC1        0.0000
      3 H3'         3.5360    0.8080   -1.3050 H         1 UDC1        0.0000
      4 H3          2.0620    1.8420    0.8940 H         1 UDC1        0.0000
      5 C4          1.4770    2.2640   -1.1610 C.3       1 UDC1        0.0000
      6 H4A         1.8670    2.0160   -2.1710 H         1 UDC1        0.0000
      7 H4B         1.7580    3.3210   -0.9580 H         1 UDC1        0.0000
      8 C5         -0.0750    2.1600   -1.1910 C.3       1 UDC1        0.0000
      9 H5         -0.4210    2.6370   -0.2400 H         1 UDC1        0.0000
     10 C6         -0.6320    3.0130   -2.3490 C.3       1 UDC1        0.0000
     11 H6A        -0.0860    3.9800   -2.3940 H         1 UDC1        0.0000
     12 H6B        -1.6930    3.2600   -2.1220 H         1 UDC1        0.0000
     13 C7         -0.5600    2.3350   -3.7320 C.3       1 UDC1        0.0000
     14 O7         -1.4380    3.0740   -4.5720 O.3       1 UDC1        0.0000
     15 H7'        -1.4160    2.6120   -5.4120 H         1 UDC1        0.0000
     16 H7          0.4840    2.3990   -4.1140 H         1 UDC1        0.0000
     17 C8         -1.0070    0.8680   -3.6900 C.3       1 UDC1        0.0000
     18 H8         -2.1080    0.8190   -3.5940 H         1 UDC1        0.0000
     19 C14        -0.5430    0.1770   -5.0160 C.3       1 UDC1        0.0000
     20 H14         0.5710    0.1750   -5.0300 H         1 UDC1        0.0000
     21 C15        -1.0320    0.7700   -6.3400 C.3       1 UDC1        0.0000
     22 H15A       -0.4020    1.6130   -6.6610 H         1 UDC1        0.0000
     23 H15B       -2.0690    1.1300   -6.2560 H         1 UDC1        0.0000
     24 C16        -0.9640   -0.4060   -7.3330 C.3       1 UDC1        0.0000
     25 H16A       -0.3200   -0.1660   -8.1920 H         1 UDC1        0.0000
     26 H16B       -1.9570   -0.6160   -7.7570 H         1 UDC1        0.0000
     27 C17        -0.4170   -1.6270   -6.5520 C.3       1 UDC1        0.0000
     28 H17         0.6790   -1.5770   -6.4820 H         1 UDC1        0.0000
     29 C13        -1.0190   -1.2900   -5.1370 C.3       1 UDC1        0.0000
     30 C18        -2.5650   -1.4440   -5.1190 C.3       1 UDC1        0.0000
     31 H18A       -3.0710   -0.4890   -4.8850 H         1 UDC1        0.0000
     32 H18B       -2.8720   -2.1920   -4.3610 H         1 UDC1        0.0000
     33 H18C       -2.9530   -1.7890   -6.0960 H         1 UDC1        0.0000
     34 C12        -0.4120   -2.0860   -3.9770 C.3       1 UDC1        0.0000
     35 H12A        0.6930   -2.1230   -4.0990 H         1 UDC1        0.0000
     36 H12B       -0.7920   -3.1250   -3.9480 H         1 UDC1        0.0000
     37 C11        -0.7490   -1.4240   -2.6270 C.3       1 UDC1        0.0000
     38 H11A       -0.2210   -2.0030   -1.8390 H         1 UDC1        0.0000
     39 H11B       -1.8380   -1.5210   -2.4400 H         1 UDC1        0.0000
     40 C9         -0.3390    0.0710   -2.5540 C.3       1 UDC1        0.0000
     41 H9          0.7600    0.1030   -2.7310 H         1 UDC1        0.0000
     42 C10        -0.6230    0.7380   -1.1920 C.3       1 UDC1        0.0000
     43 C19        -2.1390    0.7700   -0.8710 C.3       1 UDC1        0.0000
     44 H19A       -2.7130    1.3290   -1.6350 H         1 UDC1        0.0000
     45 H19B       -2.3090    1.2660    0.1070 H         1 UDC1        0.0000
     46 H19C       -2.5470   -0.2590   -0.8070 H         1 UDC1        0.0000
     47 C1          0.0350   -0.0190   -0.0050 C.3       1 UDC1        0.0000
     48 H1A        -0.3640   -1.0510    0.0630 H         1 UDC1        0.0000
     49 H1B        -0.2610    0.4990    0.9350 H         1 UDC1        0.0000
     50 C2          1.5670   -0.0430   -0.0690 C.3       1 UDC1        0.0000
     51 H2A         1.9600   -0.5680    0.8310 H         1 UDC1        0.0000
     52 H2B         1.8890   -0.6280   -0.9570 H         1 UDC1        0.0000
     53 C20        -0.7980   -2.9730   -7.2550 C.3       1 UDC1        0.0000
     54 H20        -1.8830   -2.9680   -7.5000 H         1 UDC1        0.0000
     55 C21        -0.4920   -4.1990   -6.3770 C.3       1 UDC1        0.0000
     56 H21A       -1.2280   -4.2820   -5.5540 H         1 UDC1        0.0000
     57 H21B        0.5350   -4.1290   -5.9620 H         1 UDC1        0.0000
     58 H21C       -0.5630   -5.1340   -6.9700 H         1 UDC1        0.0000
     59 C22        -0.0290   -3.0820   -8.5970 C.3       1 UDC1        0.0000
     60 H22A        1.0470   -3.2710   -8.3950 H         1 UDC1        0.0000
     61 H22B       -0.0940   -2.1210   -9.1510 H         1 UDC1        0.0000
     62 C23        -0.5650   -4.1770   -9.5560 C.3       1 UDC1        0.0000
     63 H23A       -1.6420   -4.0060   -9.7560 H         1 UDC1        0.0000
     64 H23B       -0.4420   -5.1880   -9.1210 H         1 UDC1        0.0000
     65 CD          0.1440   -4.1890  -10.9110 C.2       1 UDC1        0.0000
     66 OE1        -0.2900   -5.0510  -11.7190 O.co2     1 UDC1        0.0000
     67 OE2         1.0690   -3.3580  -11.0850 O.co2     1 UDC1        0.0000
@<TRIPOS>BOND
     1   66   65 ar
     2   67   65 ar
     3   65   62 1 
     4   63   62 1 
     5   62   64 1 
     6   62   59 1 
     7   61   59 1 
     8   59   60 1 
     9   59   53 1 
    10   25   24 1 
    11   26   24 1 
    12   54   53 1 
    13   24   27 1 
    14   24   21 1 
    15   53   27 1 
    16   53   55 1 
    17   58   55 1 
    18   22   21 1 
    19   27   28 1 
    20   27   29 1 
    21   55   57 1 
    22   55   56 1 
    23   21   23 1 
    24   21   19 1 
    25   33   30 1 
    26   15   14 1 
    27   29   30 1 
    28   29   19 1 
    29   29   34 1 
    30   30   31 1 
    31   30   32 1 
    32   20   19 1 
    33   19   17 1 
    34   14   13 1 
    35   16   13 1 
    36   35   34 1 
    37   34   36 1 
    38   34   37 1 
    39   13   17 1 
    40   13   10 1 
    41   17   18 1 
    42   17   40 1 
    43   41   40 1 
    44   37   40 1 
    45   37   39 1 
    46   37   38 1 
    47   40   42 1 
    48   11   10 1 
    49   10   12 1 
    50   10    8 1 
    51    6    5 1 
    52   44   43 1 
    53    3    2 1 
    54   42    8 1 
    55   42   43 1 
    56   42   47 1 
    57    8    5 1 
    58    8    9 1 
    59    5    7 1 
    60    5    1 1 
    61   52   50 1 
    62   43   46 1 
    63   43   45 1 
    64    2    1 1 
    65    1   50 1 
    66    1    4 1 
    67   50   47 1 
    68   50   51 1 
    69   47   48 1 
    70   47   49 1 
