@<TRIPOS>MOLECULE
C:\Users\Praveer\PycharmProjects\pdb_to_mol2_converter\data\pdb\undpp.pdb
  154   153     0     0     0
SMALL
GASTEIGER

@<TRIPOS>ATOM
      1 P2          1.4640    0.0010   -0.0560 P.3       1 UND1        0.0000
      2 O22         1.9450    1.4950   -0.0110 O.3       1 UND1        0.0000
      3 HO22        2.1510    1.5180    0.9360 H         1 UND1        0.0000
      4 O23         1.9640   -0.3810    1.3010 O.3       1 UND1        0.0000
      5 O24         2.0410   -0.6350   -1.2790 O.2       1 UND1        0.0000
      6 P1         -1.3670   -0.9570   -0.0120 P.3       1 UND1        0.0000
      7 O12        -0.1520    0.1250   -0.0760 O.3       1 UND1        0.0000
      8 O13        -1.4830   -1.7540   -1.2850 O.2       1 UND1        0.0000
      9 O14        -1.4080   -1.6840    1.3100 O.3       1 UND1        0.0000
     10 O11        -2.6880    0.0160    0.0010 O.3       1 UND1        0.0000
     11 C1A        -3.9490   -0.6700    0.0040 C.3       1 UND1        0.0000
     12 H1A1       -4.0300   -1.3190    0.9090 H         1 UND1        0.0000
     13 H1A2       -4.0370   -1.3200   -0.9010 H         1 UND1        0.0000
     14 C1B        -5.0470    0.3590    0.0060 C.2       1 UND1        0.0000
     15 H1B        -4.6840    1.3960    0.0020 H         1 UND1        0.0000
     16 C1C        -6.3690    0.1010    0.0040 C.2       1 UND1        0.0000
     17 C1D        -7.3610    1.2390    0.0020 C.3       1 UND1        0.0000
     18 H1D1       -6.8720    2.2380    0.0030 H         1 UND1        0.0000
     19 H1D2       -8.0130    1.1920    0.9000 H         1 UND1        0.0000
     20 H1D3       -8.0100    1.1910   -0.8980 H         1 UND1        0.0000
     21 C1E        -6.8530   -1.3330    0.0010 C.3       1 UND1        0.0000
     22 H1E1       -6.4360   -1.8530    0.8950 H         1 UND1        0.0000
     23 H1E2       -6.4360   -1.8500   -0.8930 H         1 UND1        0.0000
     24 C2A        -8.3910   -1.5400    0.0010 C.3       1 UND1        0.0000
     25 H2A1       -8.8160   -1.0430   -0.9000 H         1 UND1        0.0000
     26 H2A2       -8.8170   -1.0440    0.9010 H         1 UND1        0.0000
     27 C2B        -8.7580   -3.0050    0.0000 C.2       1 UND1        0.0000
     28 H2B        -7.9060   -3.7010   -0.0000 H         1 UND1        0.0000
     29 C2C       -10.0080   -3.5080    0.0000 C.2       1 UND1        0.0000
     30 C2D       -10.2020   -5.0050   -0.0000 C.3       1 UND1        0.0000
     31 H2D1       -9.2440   -5.5710   -0.0000 H         1 UND1        0.0000
     32 H2D2      -10.7710   -5.3270   -0.8980 H         1 UND1        0.0000
     33 H2D3      -10.7710   -5.3270    0.8980 H         1 UND1        0.0000
     34 C2E       -11.2080   -2.5860    0.0000 C.3       1 UND1        0.0000
     35 H2E1      -11.1620   -1.9240   -0.8950 H         1 UND1        0.0000
     36 H2E2      -11.1620   -1.9240    0.8960 H         1 UND1        0.0000
     37 C3A       -12.5890   -3.2930    0.0000 C.3       1 UND1        0.0000
     38 H3A1      -12.6530   -3.9460    0.9000 H         1 UND1        0.0000
     39 H3A2      -12.6530   -3.9460   -0.9000 H         1 UND1        0.0000
     40 C3B       -13.7460   -2.3220    0.0000 C.2       1 UND1        0.0000
     41 H3B       -13.4760   -1.2560    0.0000 H         1 UND1        0.0000
     42 C3C       -15.0490   -2.6660    0.0000 C.2       1 UND1        0.0000
     43 C3D       -16.1040   -1.5880    0.0000 C.3       1 UND1        0.0000
     44 H3D1      -15.6820   -0.5590    0.0000 H         1 UND1        0.0000
     45 H3D2      -16.7540   -1.6750    0.8970 H         1 UND1        0.0000
     46 H3D3      -16.7540   -1.6750   -0.8970 H         1 UND1        0.0000
     47 C3E       -15.4500   -4.1250    0.0000 C.3       1 UND1        0.0000
     48 H3E1      -15.0150   -4.6260    0.8960 H         1 UND1        0.0000
     49 H3E2      -15.0150   -4.6260   -0.8960 H         1 UND1        0.0000
     50 C4A       -16.9760   -4.3990    0.0000 C.3       1 UND1        0.0000
     51 H4A1      -17.4230   -3.9180   -0.9000 H         1 UND1        0.0000
     52 H4A2      -17.4230   -3.9180    0.9000 H         1 UND1        0.0000
     53 C4B       -17.3020   -5.8730   -0.0000 C.2       1 UND1        0.0000
     54 H4B       -16.4390   -6.5550   -0.0000 H         1 UND1        0.0000
     55 C4C       -18.5450   -6.3910   -0.0000 C.2       1 UND1        0.0000
     56 C4D       -18.7320   -7.8880   -0.0000 C.3       1 UND1        0.0000
     57 H4D1      -17.7730   -8.4510   -0.0000 H         1 UND1        0.0000
     58 H4D2      -19.3010   -8.2130   -0.8970 H         1 UND1        0.0000
     59 H4D3      -19.3010   -8.2130    0.8970 H         1 UND1        0.0000
     60 C4E       -19.7460   -5.4710    0.0000 C.3       1 UND1        0.0000
     61 H4E1      -19.7020   -4.8100   -0.8960 H         1 UND1        0.0000
     62 H4E2      -19.7020   -4.8100    0.8960 H         1 UND1        0.0000
     63 C5A       -21.1250   -6.1760   -0.0000 C.3       1 UND1        0.0000
     64 H5A1      -21.1910   -6.8290    0.9000 H         1 UND1        0.0000
     65 H5A2      -21.1910   -6.8290   -0.9000 H         1 UND1        0.0000
     66 C5B       -22.2730   -5.1960    0.0000 C.2       1 UND1        0.0000
     67 H5B       -21.9980   -4.1310    0.0000 H         1 UND1        0.0000
     68 C5C       -23.5760   -5.5360    0.0000 C.2       1 UND1        0.0000
     69 C5D       -24.6330   -4.4590    0.0000 C.3       1 UND1        0.0000
     70 H5D1      -24.2110   -3.4300    0.0000 H         1 UND1        0.0000
     71 H5D2      -25.2820   -4.5470    0.8970 H         1 UND1        0.0000
     72 H5D3      -25.2820   -4.5470   -0.8970 H         1 UND1        0.0000
     73 C5E       -23.9680   -6.9970    0.0000 C.3       1 UND1        0.0000
     74 H5E1      -23.5320   -7.4950    0.8960 H         1 UND1        0.0000
     75 H5E2      -23.5320   -7.4950   -0.8960 H         1 UND1        0.0000
     76 C6A       -25.4900   -7.2740    0.0000 C.3       1 UND1        0.0000
     77 H6A1      -25.9400   -6.7960   -0.9000 H         1 UND1        0.0000
     78 H6A2      -25.9400   -6.7960    0.9000 H         1 UND1        0.0000
     79 C6B       -25.8030   -8.7510   -0.0000 C.2       1 UND1        0.0000
     80 H6B       -24.9380   -9.4300   -0.0000 H         1 UND1        0.0000
     81 C6C       -27.0440   -9.2680   -0.0000 C.2       1 UND1        0.0000
     82 C6D       -27.2390  -10.7640   -0.0000 C.3       1 UND1        0.0000
     83 H6D1      -26.2820  -11.3310   -0.0000 H         1 UND1        0.0000
     84 H6D2      -27.8100  -11.0860   -0.8970 H         1 UND1        0.0000
     85 H6D3      -27.8100  -11.0860    0.8970 H         1 UND1        0.0000
     86 C6E       -28.2370   -8.3390    0.0000 C.3       1 UND1        0.0000
     87 H6E1      -28.1900   -7.6790   -0.8960 H         1 UND1        0.0000
     88 H6E2      -28.1900   -7.6790    0.8960 H         1 UND1        0.0000
     89 C7A       -29.6140   -9.0410    0.0000 C.3       1 UND1        0.0000
     90 H7A1      -29.6840   -9.6920    0.9010 H         1 UND1        0.0000
     91 H7A2      -29.6840   -9.6920   -0.9010 H         1 UND1        0.0000
     92 C7B       -30.7500   -8.0500    0.0000 C.2       1 UND1        0.0000
     93 H7B       -30.4700   -6.9870    0.0000 H         1 UND1        0.0000
     94 C7C       -32.0510   -8.3870    0.0000 C.2       1 UND1        0.0000
     95 C7D       -33.1030   -7.3050   -0.0000 C.3       1 UND1        0.0000
     96 H7D1      -32.6790   -6.2770   -0.0000 H         1 UND1        0.0000
     97 H7D2      -33.7540   -7.3890    0.8970 H         1 UND1        0.0000
     98 H7D3      -33.7540   -7.3890   -0.8970 H         1 UND1        0.0000
     99 C7E       -32.4430   -9.8490    0.0000 C.3       1 UND1        0.0000
    100 H7E1      -32.0160  -10.3530    0.8970 H         1 UND1        0.0000
    101 H7E2      -32.0160  -10.3530   -0.8970 H         1 UND1        0.0000
    102 C8A       -33.9680  -10.0860   -0.0000 C.3       1 UND1        0.0000
    103 H8A1      -34.3970   -9.5910   -0.9010 H         1 UND1        0.0000
    104 H8A2      -34.3970   -9.5910    0.9010 H         1 UND1        0.0000
    105 C8B       -34.3750  -11.5380    0.0000 C.2       1 UND1        0.0000
    106 H8B       -33.5600  -12.2770   -0.0000 H         1 UND1        0.0000
    107 C8C       -35.6530  -11.9610    0.0000 C.2       1 UND1        0.0000
    108 C8D       -36.7920  -10.9620   -0.0000 C.3       1 UND1        0.0000
    109 H8D1      -36.4780   -9.8970   -0.0000 H         1 UND1        0.0000
    110 H8D2      -37.4310  -11.0960    0.8980 H         1 UND1        0.0000
    111 H8D3      -37.4310  -11.0960   -0.8980 H         1 UND1        0.0000
    112 C8E       -35.9590  -13.4450    0.0000 C.3       1 UND1        0.0000
    113 H8E1      -35.5110  -13.9290    0.8970 H         1 UND1        0.0000
    114 H8E2      -35.5110  -13.9290   -0.8970 H         1 UND1        0.0000
    115 C9A       -37.4800  -13.7310    0.0000 C.3       1 UND1        0.0000
    116 H9A1      -37.9170  -13.2440   -0.9020 H         1 UND1        0.0000
    117 H9A2      -37.9170  -13.2440    0.9020 H         1 UND1        0.0000
    118 C9B       -37.9090  -15.1750    0.0000 C.2       1 UND1        0.0000
    119 H9B       -37.1090  -15.9300   -0.0000 H         1 UND1        0.0000
    120 C9C       -39.2000  -15.5630   -0.0000 C.2       1 UND1        0.0000
    121 C9D       -40.3160  -14.5370   -0.0000 C.3       1 UND1        0.0000
    122 H9D1      -39.9810  -13.4780    0.0000 H         1 UND1        0.0000
    123 H9D2      -40.9590  -14.6560    0.8980 H         1 UND1        0.0000
    124 H9D3      -40.9590  -14.6560   -0.8980 H         1 UND1        0.0000
    125 C9E       -39.5490  -17.0370   -0.0000 C.3       1 UND1        0.0000
    126 H9E1      -39.1130  -17.5320    0.8970 H         1 UND1        0.0000
    127 H9E2      -39.1130  -17.5320   -0.8970 H         1 UND1        0.0000
    128 C10A      -41.0780  -17.2880   -0.0000 C.3       1 UND1        0.0000
    129 H10A      -41.5050  -16.7920   -0.9020 H         1 UND1        0.0000
    130 H10A      -41.5050  -16.7920    0.9020 H         1 UND1        0.0000
    131 C10B      -41.5300  -18.7240   -0.0000 C.2       1 UND1        0.0000
    132 H10B      -40.7400  -19.4890   -0.0000 H         1 UND1        0.0000
    133 C10C      -42.8260  -19.1000   -0.0000 C.2       1 UND1        0.0000
    134 C10D      -43.9340  -18.0680   -0.0000 C.3       1 UND1        0.0000
    135 H10D      -43.5890  -17.0130    0.0000 H         1 UND1        0.0000
    136 H10D      -44.5780  -18.1850    0.8980 H         1 UND1        0.0000
    137 H10D      -44.5780  -18.1850   -0.8980 H         1 UND1        0.0000
    138 C10E      -43.1860  -20.5700   -0.0000 C.3       1 UND1        0.0000
    139 H10E      -42.7480  -21.0650    0.8970 H         1 UND1        0.0000
    140 H10E      -42.7480  -21.0650   -0.8970 H         1 UND1        0.0000
    141 C11A      -44.7150  -20.8330   -0.0000 C.3       1 UND1        0.0000
    142 H11A      -45.1540  -20.3450   -0.9010 H         1 UND1        0.0000
    143 H11A      -45.1540  -20.3450    0.9010 H         1 UND1        0.0000
    144 C11B      -45.1110  -22.2860   -0.0000 C.2       1 UND1        0.0000
    145 H11B      -44.2850  -23.0120   -0.0000 H         1 UND1        0.0000
    146 C11C      -46.3820  -22.7360   -0.0000 C.2       1 UND1        0.0000
    147 C11D      -46.6750  -24.2110   -0.0000 C.3       1 UND1        0.0000
    148 H11D      -45.7590  -24.8410   -0.0000 H         1 UND1        0.0000
    149 H11D      -47.2710  -24.4860   -0.8960 H         1 UND1        0.0000
    150 H11D      -47.2710  -24.4860    0.8960 H         1 UND1        0.0000
    151 C11E      -47.5690  -21.8070   -0.0000 C.3       1 UND1        0.0000
    152 H11E      -47.3010  -20.7280   -0.0000 H         1 UND1        0.0000
    153 H11E      -48.2000  -21.9850    0.8960 H         1 UND1        0.0000
    154 H11E      -48.2000  -21.9850   -0.8960 H         1 UND1        0.0000
@<TRIPOS>BOND
     1    8    6 2 
     2    5    1 2 
     3  129  128 1 
     4  116  115 1 
     5  103  102 1 
     6   91   89 1 
     7   13   11 1 
     8  142  141 1 
     9   39   37 1 
    10   51   50 1 
    11   77   76 1 
    12   65   63 1 
    13   25   24 1 
    14  111  108 1 
    15   32   30 1 
    16  137  134 1 
    17   20   17 1 
    18  124  121 1 
    19  114  112 1 
    20  101   99 1 
    21   72   69 1 
    22   98   95 1 
    23   58   56 1 
    24  140  138 1 
    25   84   82 1 
    26  127  125 1 
    27   46   43 1 
    28  149  147 1 
    29   61   60 1 
    30   75   73 1 
    31  154  151 1 
    32   49   47 1 
    33   87   86 1 
    34   35   34 1 
    35   23   21 1 
    36    7    1 1 
    37    7    6 1 
    38    1    2 1 
    39    1    4 1 
    40    6   10 1 
    41    6    9 1 
    42    2    3 1 
    43   67   66 1 
    44  118  119 1 
    45  118  120 2 
    46  118  115 1 
    47  120  121 1 
    48  120  125 1 
    49  121  122 1 
    50  121  123 1 
    51   66   63 1 
    52   66   68 2 
    53  125  128 1 
    54  125  126 1 
    55  128  131 1 
    56  128  130 1 
    57   63   60 1 
    58   63   64 1 
    59  131  132 1 
    60  131  133 2 
    61   94   92 2 
    62   94   95 1 
    63   94   99 1 
    64  133  134 1 
    65  133  138 1 
    66  134  135 1 
    67  134  136 1 
    68  138  141 1 
    69  138  139 1 
    70   27   28 1 
    71   27   29 2 
    72   27   24 1 
    73   29   30 1 
    74   29   34 1 
    75   30   31 1 
    76   30   33 1 
    77   60   55 1 
    78   60   62 1 
    79   34   37 1 
    80   34   36 1 
    81  141  144 1 
    82  141  143 1 
    83   37   40 1 
    84   37   38 1 
    85  144  145 1 
    86  144  146 2 
    87   40   41 1 
    88   40   42 2 
    89   42   43 1 
    90   42   47 1 
    91   43   44 1 
    92   43   45 1 
    93   47   50 1 
    94   47   48 1 
    95  146  147 1 
    96  146  151 1 
    97   50   53 1 
    98   50   52 1 
    99  147  148 1 
   100  147  150 1 
   101   53   54 1 
   102   53   55 2 
   103   55   56 1 
   104   56   57 1 
   105   56   59 1 
   106   81   82 1 
   107   81   86 1 
   108   81   79 2 
   109   82   83 1 
   110   82   85 1 
   111   76   79 1 
   112   76   73 1 
   113   76   78 1 
   114   86   89 1 
   115   86   88 1 
   116   79   80 1 
   117   89   92 1 
   118   89   90 1 
   119  151  152 1 
   120  151  153 1 
   121   92   93 1 
   122   95   96 1 
   123   95   97 1 
   124   73   68 1 
   125   73   74 1 
   126   99  102 1 
   127   99  100 1 
   128  102  105 1 
   129  102  104 1 
   130   70   69 1 
   131  105  106 1 
   132  105  107 2 
   133  107  108 1 
   134  107  112 1 
   135  108  109 1 
   136  108  110 1 
   137   69   68 1 
   138   69   71 1 
   139  112  115 1 
   140  112  113 1 
   141  115  117 1 
   142   10   11 1 
   143   24   21 1 
   144   24   26 1 
   145   21   16 1 
   146   21   22 1 
   147   15   14 1 
   148   17   18 1 
   149   17   16 1 
   150   17   19 1 
   151   11   14 1 
   152   11   12 1 
   153   16   14 2 
