@<TRIPOS>MOLECULE
C:\Users\Praveer\PycharmProjects\pdb_to_mol2_converter\data\pdb\ura24s.pdb
   12    12     0     0     0
SMALL
GASTEIGER

@<TRIPOS>ATOM
      1 N1          1.6890    2.3230   -0.0000 N.ar      1 URA1        0.0000
      2 C2          2.2880    1.0570    0.0000 C.ar      1 URA1        0.0000
      3 N3          1.3880   -0.0120    0.0000 N.ar      1 URA1        0.0000
      4 C4         -0.0090    0.0440    0.0000 C.ar      1 URA1        0.0000
      5 C5         -0.5430    1.3950   -0.0000 C.ar      1 URA1        0.0000
      6 C6          0.2980    2.5110   -0.0000 C.ar      1 URA1        0.0000
      7 H1          2.3600    3.0790   -0.0000 H         1 URA1        0.0000
      8 H3          1.7890   -0.9380    0.0000 H         1 URA1        0.0000
      9 H5         -1.6170    1.4980   -0.0000 H         1 URA1        0.0000
     10 H6         -0.0870    3.5210   -0.0000 H         1 URA1        0.0000
     11 S4         -0.9300   -1.3260    0.0000 S.2       1 URA1        0.0000
     12 S2          3.9240    0.8520   -0.0000 S.2       1 URA1        0.0000
@<TRIPOS>BOND
     1    1    2 ar
     2    1    6 ar
     3    1    7 1 
     4    2    3 ar
     5    2   12 2 
     6    3    4 ar
     7    3    8 1 
     8    4    5 ar
     9    4   11 2 
    10    5    6 ar
    11    5    9 1 
    12    6   10 1 
