@<TRIPOS>MOLECULE
C:\Users\Praveer\PycharmProjects\pdb_to_mol2_converter\data\pdb\ura2s.pdb
   12    12     0     0     0
SMALL
GASTEIGER

@<TRIPOS>ATOM
      1 C2          2.2890    1.0520    0.0000 C.ar      1 URA1        0.0000
      2 C4          0.0080    0.0680    0.0000 C.ar      1 URA1        0.0000
      3 C5         -0.5370    1.3900    0.0000 C.ar      1 URA1        0.0000
      4 C6          0.3180    2.4670    0.0000 C.ar      1 URA1        0.0000
      5 H1          2.3250    3.0870    0.0000 H         1 URA1        0.0000
      6 H3          1.7520   -0.9430    0.0000 H         1 URA1        0.0000
      7 H5         -1.6160    1.5180    0.0000 H         1 URA1        0.0000
      8 H6         -0.0690    3.4890   -0.0000 H         1 URA1        0.0000
      9 O4         -0.6450   -0.9710    0.0000 O.2       1 URA1        0.0000
     10 S2          3.9200    0.8440   -0.0000 S.2       1 URA1        0.0000
     11 N1          1.6820    2.3090    0.0000 N.ar      1 URA1        0.0000
     12 N3          1.3890   -0.0070    0.0000 N.ar      1 URA1        0.0000
@<TRIPOS>BOND
     1    1   10 2 
     2    1   11 ar
     3    1   12 ar
     4    2    3 ar
     5    2    9 2 
     6    2   12 ar
     7    3    4 ar
     8    3    7 1 
     9    4    8 1 
    10    4   11 ar
    11    5   11 1 
    12    6   12 1 
