@<TRIPOS>MOLECULE
C:\Users\Praveer\PycharmProjects\pdb_to_mol2_converter\data\pdb\ura4s.pdb
   12    12     0     0     0
SMALL
GASTEIGER

@<TRIPOS>ATOM
      1 C2          2.2530    1.0410    0.0000 C.ar      1 URA1        0.0000
      2 C4         -0.0040    0.0540    0.0000 C.ar      1 URA1        0.0000
      3 C5         -0.5340    1.3900    0.0000 C.ar      1 URA1        0.0000
      4 C6          0.3230    2.4670    0.0000 C.ar      1 URA1        0.0000
      5 H1          2.3590    3.0470    0.0000 H         1 URA1        0.0000
      6 H3          1.8060   -0.9380    0.0000 H         1 URA1        0.0000
      7 H5         -1.6140    1.5360    0.0000 H         1 URA1        0.0000
      8 H6         -0.0680    3.4900   -0.0000 H         1 URA1        0.0000
      9 S4         -0.9460   -1.2970    0.0000 S.2       1 URA1        0.0000
     10 O2          3.4710    0.8880   -0.0000 O.2       1 URA1        0.0000
     11 N1          1.6840    2.3020    0.0000 N.ar      1 URA1        0.0000
     12 N3          1.3850   -0.0260    0.0000 N.ar      1 URA1        0.0000
@<TRIPOS>BOND
     1    1   10 2 
     2    1   11 ar
     3    1   12 ar
     4    2    3 ar
     5    2    9 2 
     6    2   12 ar
     7    3    4 ar
     8    3    7 1 
     9    4    8 1 
    10    4   11 ar
    11    5   11 1 
    12    6   12 1 
