@<TRIPOS>MOLECULE
C:\Users\Praveer\PycharmProjects\pdb_to_mol2_converter\data\pdb\urac.pdb
   12    12     0     0     0
SMALL
GASTEIGER

@<TRIPOS>ATOM
      1 N1          0.0080    0.0430   -0.0000 N.ar      1 URA1        0.0000
      2 C6         -0.7060    1.2130   -0.0000 C.ar      1 URA1        0.0000
      3 H6         -1.7970    1.1450    0.0000 H         1 URA1        0.0000
      4 C2          1.3890    0.0460   -0.0000 C.ar      1 URA1        0.0000
      5 O2          2.0340   -0.9950   -0.0000 O.2       1 URA1        0.0000
      6 N3          1.9950    1.2710   -0.0000 N.ar      1 URA1        0.0000
      7 H3          2.9960    1.2890   -0.0000 H         1 URA1        0.0000
      8 C4          1.3530    2.4900   -0.0000 C.ar      1 URA1        0.0000
      9 O4          2.0290    3.5130    0.0000 O.2       1 URA1        0.0000
     10 C5         -0.0790    2.4370   -0.0000 C.ar      1 URA1        0.0000
     11 H5         -0.6490    3.3630    0.0000 H         1 URA1        0.0000
     12 H1         -0.3900   -0.8810    0.0000 H         1 URA1        0.0000
@<TRIPOS>BOND
     1    1    2 ar
     2    1    4 ar
     3    1   12 1 
     4    2    3 1 
     5    2   10 ar
     6    4    5 2 
     7    4    6 ar
     8    6    7 1 
     9    6    8 ar
    10    8    9 2 
    11    8   10 ar
    12   10   11 1 
