@<TRIPOS>MOLECULE
C:\Users\Praveer\PycharmProjects\pdb_to_mol2_converter\data\pdb\urea.pdb
    8     7     0     0     0
SMALL
GASTEIGER

@<TRIPOS>ATOM
      1 N1          1.9760    1.1050   -0.0000 N.am      1 URE1        0.0000
      2 H11         1.4740    1.9620    0.0000 H         1 URE1        0.0000
      3 H12         2.9640    1.0360   -0.0000 H         1 URE1        0.0000
      4 C2          1.2330    0.0000   -0.0000 C.2       1 URE1        0.0000
      5 O2          0.0070    0.0000    0.0000 O.2       1 URE1        0.0000
      6 N3          1.9760   -1.1050   -0.0000 N.am      1 URE1        0.0000
      7 H31         2.9640   -1.0360   -0.0000 H         1 URE1        0.0000
      8 H32         1.4740   -1.9620   -0.0000 H         1 URE1        0.0000
@<TRIPOS>BOND
     1    1    2 1 
     2    1    3 1 
     3    1    4 am
     4    4    5 2 
     5    4    6 am
     6    6    7 1 
     7    6    8 1 
