@<TRIPOS>MOLECULE
C:\Users\Praveer\PycharmProjects\pdb_to_mol2_converter\data\pdb\vclipb.pdb
  294   295     0     0     0
SMALL
GASTEIGER

@<TRIPOS>ATOM
      1 HB6S       -7.9700    2.3790    0.8280 H         1 VCL1        0.0000
      2 OB6        -6.8010    0.9050    1.7340 O.3       1 VCL1        0.0000
      3 HOB6       -5.9940    0.4300    1.5130 H         1 VCL1        0.0000
      4 CB6        -7.0870    1.7370    0.6020 C.3       1 VCL1        0.0000
      5 HB6R       -7.3620    1.1000   -0.2680 H         1 VCL1        0.0000
      6 CB5        -5.8860    2.5970    0.2430 C.3       1 VCL1        0.0000
      7 OB5        -4.7290    1.7540    0.1010 O.3       1 VCL1        0.0000
      8 HB5        -5.7260    3.3160    1.0810 H         1 VCL1        0.0000
      9 CB1        -3.5390    2.5290   -0.0610 C.3       1 VCL1        0.0000
     10 HB1        -3.3970    3.2020    0.8160 H         1 VCL1        0.0000
     11 OA6        -2.4070    1.7120   -0.2020 O.3       1 VCL1        0.0000
     12 CA6        -2.1530    0.8950    0.9460 C.3       1 VCL1        0.0000
     13 HA6R       -2.6120   -0.1080    0.8050 H         1 VCL1        0.0000
     14 HA6S       -2.5780    1.3540    1.8660 H         1 VCL1        0.0000
     15 CB4        -6.0430    3.3640   -1.0570 C.3       1 VCL1        0.0000
     16 HB4        -6.1410    2.6080   -1.8760 H         1 VCL1        0.0000
     17 OB4        -7.2010    4.1740   -0.9040 O.3       1 VCL1        0.0000
     18 PB         -8.4050    4.2200   -2.0420 P.3       1 VCL1        0.0000
     19 OPB4       -8.3720    5.6550   -2.5600 O.3       1 VCL1        0.0000
     20 OPB3       -9.6640    3.8570   -1.2710 O.3       1 VCL1        0.0000
     21 OPB2       -8.0310    3.2060   -3.1160 O.2       1 VCL1        0.0000
     22 CB3        -4.8280    4.2200   -1.3290 C.3       1 VCL1        0.0000
     23 OB3        -4.9470    4.8280   -2.6130 O.3       1 VCL1        0.0000
     24 HB3        -4.7110    4.9660   -0.5010 H         1 VCL1        0.0000
     25 C71        -5.4770    6.0660   -2.6320 C.2       1 VCL1        0.0000
     26 O71        -5.2320    6.9010   -1.7730 O.2       1 VCL1        0.0000
     27 C72        -5.6370    6.3980   -4.1160 C.3       1 VCL1        0.0000
     28 H72R       -6.5990    5.9350   -4.4300 H         1 VCL1        0.0000
     29 H72S       -4.8140    5.9200   -4.6820 H         1 VCL1        0.0000
     30 CB2        -3.5880    3.3570   -1.3340 C.3       1 VCL1        0.0000
     31 HB2        -3.6790    2.6420   -2.1910 H         1 VCL1        0.0000
     32 NB2        -2.3550    4.1250   -1.4860 N.am      1 VCL1        0.0000
     33 HNB2       -1.9310    4.3920   -0.6320 H         1 VCL1        0.0000
     34 CA4         0.0210    2.1270    1.1720 C.3       1 VCL1        0.0000
     35 HA4        -0.2550    2.6730    0.2390 H         1 VCL1        0.0000
     36 OA4        -0.4680    2.8670    2.2870 O.3       1 VCL1        0.0000
     37 HOA4       -0.2010    3.7830    2.1240 H         1 VCL1        0.0000
     38 CA5        -0.6530    0.7670    1.1010 C.3       1 VCL1        0.0000
     39 HA5        -0.4280    0.1850    2.0260 H         1 VCL1        0.0000
     40 OA5        -0.1680    0.0320   -0.0300 O.3       1 VCL1        0.0000
     41 CA1         1.2560   -0.1630   -0.0190 C.3       1 VCL1        0.0000
     42 HA1         1.4720   -0.6640   -0.9950 H         1 VCL1        0.0000
     43 OA1         1.6410   -0.9750    1.0810 O.3       1 VCL1        0.0000
     44 OPA2        2.8360   -2.9440    2.1230 O.3       1 VCL1        0.0000
     45 OPA3        2.5370   -2.7900   -0.4160 O.2       1 VCL1        0.0000
     46 OPA4        4.1290   -1.2190    0.7710 O.3       1 VCL1        0.0000
     47 PA          2.8700   -2.0620    0.8740 P.3       1 VCL1        0.0000
     48 CA3         1.5290    1.9870    1.1870 C.3       1 VCL1        0.0000
     49 HA3         1.8040    1.3810    2.0860 H         1 VCL1        0.0000
     50 OA3         2.3760    3.1390    1.2060 O.3       1 VCL1        0.0000
     51 C31         1.9980    4.3790    1.0730 C.2       1 VCL1        0.0000
     52 O31         0.8720    4.8160    1.0630 O.2       1 VCL1        0.0000
     53 C32         3.2670    5.2080    1.2740 C.3       1 VCL1        0.0000
     54 H32R        3.9780    4.9440    0.4640 H         1 VCL1        0.0000
     55 H32S        3.7150    4.9150    2.2460 H         1 VCL1        0.0000
     56 CA2         1.9310    1.1920   -0.0270 C.3       1 VCL1        0.0000
     57 HA2         1.5120    1.7290   -0.9180 H         1 VCL1        0.0000
     58 NA2         3.3560    1.0630   -0.2190 N.am      1 VCL1        0.0000
     59 HNA2        3.7240    0.2020    0.1970 H         1 VCL1        0.0000
     60 C73        -5.6670    7.9020   -4.4360 C.3       1 VCL1        0.0000
     61 H73R       -6.5250    8.3850   -3.9070 H         1 VCL1        0.0000
     62 O73        -5.7950    7.9370   -5.8610 O.3       1 VCL1        0.0000
     63 C81        -7.0180    8.1020   -6.3590 C.2       1 VCL1        0.0000
     64 O81        -7.8870    8.7860   -5.8870 O.2       1 VCL1        0.0000
     65 C82        -7.1270    7.4150   -7.7370 C.3       1 VCL1        0.0000
     66 H82R       -8.0520    7.8020   -8.2150 H         1 VCL1        0.0000
     67 H82S       -7.2620    6.3300   -7.5530 H         1 VCL1        0.0000
     68 C83        -5.9240    7.6570   -8.6790 C.3       1 VCL1        0.0000
     69 H83R       -6.1180    7.1200   -9.6410 H         1 VCL1        0.0000
     70 O83        -4.7550    7.1700   -8.0230 O.3       1 VCL1        0.0000
     71 CC1        -3.8020    6.5800   -8.7090 C.2       1 VCL1        0.0000
     72 OC1        -3.8400    6.3870   -9.9050 O.2       1 VCL1        0.0000
     73 CC2        -2.3840    6.6210   -8.0850 C.3       1 VCL1        0.0000
     74 HC11       -2.1190    5.6070   -7.8230 H         1 VCL1        0.0000
     75 HC12       -2.4230    7.2970   -7.2420 H         1 VCL1        0.0000
     76 NC         -1.3630    7.1440   -9.0830 N.4       1 VCL1        0.0000
     77 HNC1       -1.1390    8.1470   -8.9040 H         1 VCL1        0.0000
     78 HNC2       -1.7680    7.0520  -10.0440 H         1 VCL1        0.0000
     79 HNC3       -0.4820    6.5910   -9.0340 H         1 VCL1        0.0000
     80 C84        -5.7680    9.1710   -8.9600 C.3       1 VCL1        0.0000
     81 H84R       -5.7140    9.6950   -7.9820 H         1 VCL1        0.0000
     82 H84S       -6.6970    9.5290   -9.4580 H         1 VCL1        0.0000
     83 C85        -4.5460    9.6050   -9.7910 C.3       1 VCL1        0.0000
     84 H85R       -4.8800    9.9490  -10.7950 H         1 VCL1        0.0000
     85 H85S       -3.8540    8.7680   -9.9730 H         1 VCL1        0.0000
     86 C86        -3.7260   10.7080   -9.1140 C.3       1 VCL1        0.0000
     87 H86R       -3.4870   10.4330   -8.0670 H         1 VCL1        0.0000
     88 H86S       -4.3570   11.6220   -9.0720 H         1 VCL1        0.0000
     89 C87        -2.4010   10.9690   -9.8390 C.3       1 VCL1        0.0000
     90 H87R       -2.4940   10.6370  -10.8960 H         1 VCL1        0.0000
     91 H87S       -1.6020   10.3650   -9.3550 H         1 VCL1        0.0000
     92 C88        -1.9950   12.4440   -9.8470 C.3       1 VCL1        0.0000
     93 H88R       -2.7970   13.0440   -9.3720 H         1 VCL1        0.0000
     94 H88S       -1.8690   12.7940  -10.8990 H         1 VCL1        0.0000
     95 C89        -0.6940   12.6990   -9.0850 C.3       1 VCL1        0.0000
     96 H89R        0.0240   11.9150   -9.3970 H         1 VCL1        0.0000
     97 H89S       -0.8830   12.5760   -7.9960 H         1 VCL1        0.0000
     98 C810       -0.1070   14.0890   -9.3860 C.3       1 VCL1        0.0000
     99 H810       -0.9020   14.8510   -9.2940 H         1 VCL1        0.0000
    100 H810        0.2140   14.1160  -10.4440 H         1 VCL1        0.0000
    101 C811        1.0560   14.5000   -8.4690 C.3       1 VCL1        0.0000
    102 H811        1.6670   13.6010   -8.2510 H         1 VCL1        0.0000
    103 H811        0.6320   14.8300   -7.4980 H         1 VCL1        0.0000
    104 C812        1.9790   15.6000   -9.0220 C.3       1 VCL1        0.0000
    105 H812        1.4210   16.3980   -9.5530 H         1 VCL1        0.0000
    106 H812        2.7030   15.1670   -9.7430 H         1 VCL1        0.0000
    107 H812        2.5540   16.0750   -8.1960 H         1 VCL1        0.0000
    108 C74        -4.3520    8.6420   -4.0670 C.3       1 VCL1        0.0000
    109 H74R       -3.5370    8.2980   -4.7350 H         1 VCL1        0.0000
    110 H74S       -4.0440    8.3900   -3.0340 H         1 VCL1        0.0000
    111 C75        -4.4710   10.1740   -4.1190 C.3       1 VCL1        0.0000
    112 H75R       -3.8760   10.6450   -3.3050 H         1 VCL1        0.0000
    113 H75S       -5.5390   10.4420   -3.9450 H         1 VCL1        0.0000
    114 C76        -4.0140   10.7300   -5.4670 C.3       1 VCL1        0.0000
    115 H76R       -4.2990    9.9740   -6.2320 H         1 VCL1        0.0000
    116 H76S       -2.9070   10.8130   -5.4850 H         1 VCL1        0.0000
    117 C77        -4.6780   12.0690   -5.8160 C.3       1 VCL1        0.0000
    118 H77R       -5.2560   12.4460   -4.9400 H         1 VCL1        0.0000
    119 H77S       -5.4140   11.8830   -6.6270 H         1 VCL1        0.0000
    120 C78        -3.7060   13.1630   -6.2780 C.3       1 VCL1        0.0000
    121 H78R       -2.8420   12.7200   -6.8180 H         1 VCL1        0.0000
    122 H78S       -3.3110   13.6720   -5.3710 H         1 VCL1        0.0000
    123 C79        -4.3660   14.1570   -7.2560 C.3       1 VCL1        0.0000
    124 H79R       -5.2680   14.6120   -6.8040 H         1 VCL1        0.0000
    125 H79S       -4.7320   13.5670   -8.1240 H         1 VCL1        0.0000
    126 C710       -3.4000   15.2340   -7.7820 C.3       1 VCL1        0.0000
    127 H710       -3.3540   16.1160   -7.1070 H         1 VCL1        0.0000
    128 H710       -2.3890   14.7760   -7.7720 H         1 VCL1        0.0000
    129 C711       -3.7030   15.7040   -9.2150 C.3       1 VCL1        0.0000
    130 H711       -4.7610   16.0300   -9.2660 H         1 VCL1        0.0000
    131 H711       -3.6260   14.8690   -9.9410 H         1 VCL1        0.0000
    132 C712       -2.8320   16.8790   -9.6720 C.3       1 VCL1        0.0000
    133 H712       -1.7700   16.7290   -9.3910 H         1 VCL1        0.0000
    134 H712       -3.1780   17.8060   -9.1720 H         1 VCL1        0.0000
    135 H712       -2.9020   17.0170  -10.7740 H         1 VCL1        0.0000
    136 C51        -1.6520    4.3190   -2.6110 C.2       1 VCL1        0.0000
    137 O51        -2.0730    4.1390   -3.7480 O.2       1 VCL1        0.0000
    138 C52        -0.2210    4.7390   -2.3600 C.3       1 VCL1        0.0000
    139 H52R        0.3100    3.8550   -1.9420 H         1 VCL1        0.0000
    140 H52S       -0.2050    5.5520   -1.6090 H         1 VCL1        0.0000
    141 C53         0.5170    5.1820   -3.6280 C.3       1 VCL1        0.0000
    142 H53R        0.3980    4.3920   -4.4110 H         1 VCL1        0.0000
    143 O53         1.8840    5.3670   -3.2260 O.3       1 VCL1        0.0000
    144 C61         2.8050    4.8020   -4.0090 C.2       1 VCL1        0.0000
    145 O61         2.5850    4.2930   -5.0950 O.2       1 VCL1        0.0000
    146 C62         4.2020    5.2180   -3.5410 C.3       1 VCL1        0.0000
    147 H62R        4.9380    4.7060   -4.1920 H         1 VCL1        0.0000
    148 H62S        4.3300    4.8460   -2.5060 H         1 VCL1        0.0000
    149 C63         4.4510    6.7390   -3.5240 C.3       1 VCL1        0.0000
    150 H63R        5.3940    6.9240   -2.9560 H         1 VCL1        0.0000
    151 H63S        3.6330    7.2590   -2.9820 H         1 VCL1        0.0000
    152 C64         4.6230    7.3570   -4.9120 C.3       1 VCL1        0.0000
    153 H64R        3.7300    7.1640   -5.5380 H         1 VCL1        0.0000
    154 H64S        5.4780    6.8760   -5.4330 H         1 VCL1        0.0000
    155 C65         4.8630    8.8660   -4.8110 C.3       1 VCL1        0.0000
    156 H65R        5.7430    9.0400   -4.1490 H         1 VCL1        0.0000
    157 H65S        3.9870    9.3570   -4.3320 H         1 VCL1        0.0000
    158 C66         5.1370    9.5090   -6.1720 C.3       1 VCL1        0.0000
    159 H66R        4.2690    9.3680   -6.8510 H         1 VCL1        0.0000
    160 H66S        6.0020    8.9920   -6.6390 H         1 VCL1        0.0000
    161 C67         5.4450   11.0040   -6.0530 C.3       1 VCL1        0.0000
    162 H67R        6.1070   11.1850   -5.1760 H         1 VCL1        0.0000
    163 H67S        4.4920   11.5460   -5.8680 H         1 VCL1        0.0000
    164 C68         6.1280   11.5600   -7.3070 C.3       1 VCL1        0.0000
    165 H68R        5.9390   10.8850   -8.1710 H         1 VCL1        0.0000
    166 H68S        7.2270   11.5770   -7.1380 H         1 VCL1        0.0000
    167 C69         5.6510   12.9690   -7.6670 C.3       1 VCL1        0.0000
    168 H69R        5.8010   13.6360   -6.7880 H         1 VCL1        0.0000
    169 H69S        4.5620   12.9490   -7.8940 H         1 VCL1        0.0000
    170 C610        6.4070   13.5400   -8.8720 C.3       1 VCL1        0.0000
    171 H610        6.1170   12.9730   -9.7850 H         1 VCL1        0.0000
    172 H610        7.5010   13.3950   -8.7190 H         1 VCL1        0.0000
    173 C611        6.1400   15.0340   -9.0800 C.3       1 VCL1        0.0000
    174 H611        6.5490   15.5910   -8.2060 H         1 VCL1        0.0000
    175 H611        5.0430   15.2150   -9.1130 H         1 VCL1        0.0000
    176 C612        6.7740   15.5750  -10.3670 C.3       1 VCL1        0.0000
    177 H612        6.2450   15.1360  -11.2420 H         1 VCL1        0.0000
    178 H612        7.8390   15.2520  -10.4200 H         1 VCL1        0.0000
    179 C613        6.7190   17.1050  -10.4490 C.3       1 VCL1        0.0000
    180 H613        7.3580   17.5270   -9.6400 H         1 VCL1        0.0000
    181 H613        5.6740   17.4390  -10.2560 H         1 VCL1        0.0000
    182 C614        7.1790   17.6580  -11.8000 C.3       1 VCL1        0.0000
    183 H614        6.5060   17.3070  -12.6120 H         1 VCL1        0.0000
    184 H614        8.2120   17.3190  -12.0310 H         1 VCL1        0.0000
    185 H614        7.1670   18.7700  -11.7910 H         1 VCL1        0.0000
    186 C54        -0.0110    6.5210   -4.1970 C.3       1 VCL1        0.0000
    187 H54R       -0.1090    7.2670   -3.3790 H         1 VCL1        0.0000
    188 H54S       -1.0190    6.3510   -4.6310 H         1 VCL1        0.0000
    189 C55         0.9300    7.0650   -5.2710 C.3       1 VCL1        0.0000
    190 H55R        1.1920    6.2270   -5.9590 H         1 VCL1        0.0000
    191 H55S        1.8650    7.4010   -4.7710 H         1 VCL1        0.0000
    192 C56         0.4030    8.2190   -6.1050 C.3       1 VCL1        0.0000
    193 H56R        0.4210    9.1600   -5.5140 H         1 VCL1        0.0000
    194 H56S       -0.6460    8.0390   -6.3980 H         1 VCL1        0.0000
    195 C57         1.2910    8.3630   -7.3340 C.3       1 VCL1        0.0000
    196 H57R        1.0710    7.5640   -8.0690 H         1 VCL1        0.0000
    197 H57S        2.3570    8.2120   -7.0370 H         1 VCL1        0.0000
    198 C58         1.1980    9.7420   -7.9580 C.3       1 VCL1        0.0000
    199 H58R        1.8800   10.4070   -7.3720 H         1 VCL1        0.0000
    200 H58S        0.1830   10.1850   -7.8700 H         1 VCL1        0.0000
    201 C59         1.6660    9.7060   -9.4100 C.3       1 VCL1        0.0000
    202 H59R        0.7930    9.6840  -10.1000 H         1 VCL1        0.0000
    203 H59S        2.2750    8.7930   -9.6040 H         1 VCL1        0.0000
    204 C510        2.5690   10.9000   -9.7030 C.3       1 VCL1        0.0000
    205 H510        3.5630   10.7590   -9.2210 H         1 VCL1        0.0000
    206 H510        2.1320   11.7960   -9.2150 H         1 VCL1        0.0000
    207 C511        2.7380   11.1570  -11.2020 C.3       1 VCL1        0.0000
    208 H511        2.2520   10.3630  -11.8100 H         1 VCL1        0.0000
    209 H511        3.8290   11.1270  -11.4200 H         1 VCL1        0.0000
    210 C512        2.2020   12.5350  -11.6050 C.3       1 VCL1        0.0000
    211 H512        2.4260   13.2270  -10.7630 H         1 VCL1        0.0000
    212 H512        1.0950   12.4990  -11.7080 H         1 VCL1        0.0000
    213 C513        2.8840   13.1020  -12.8590 C.3       1 VCL1        0.0000
    214 H513        2.6800   12.4400  -13.7280 H         1 VCL1        0.0000
    215 H513        3.9860   13.0890  -12.6920 H         1 VCL1        0.0000
    216 C514        2.4820   14.5420  -13.1980 C.3       1 VCL1        0.0000
    217 H514        2.5780   15.1920  -12.3020 H         1 VCL1        0.0000
    218 H514        1.4340   14.5860  -13.5590 H         1 VCL1        0.0000
    219 H514        3.1420   14.9490  -13.9960 H         1 VCL1        0.0000
    220 C33         3.0020    6.7220    1.2660 C.3       1 VCL1        0.0000
    221 H33R        3.9680    7.2350    1.4960 H         1 VCL1        0.0000
    222 O33         2.0880    7.0580    2.2930 O.3       1 VCL1        0.0000
    223 HO33        1.2110    6.6780    2.1660 H         1 VCL1        0.0000
    224 C34         2.5010    7.2560   -0.0880 C.3       1 VCL1        0.0000
    225 H34R        1.5150    6.8080   -0.3360 H         1 VCL1        0.0000
    226 H34S        3.2230    6.9230   -0.8640 H         1 VCL1        0.0000
    227 C35         2.3730    8.7880   -0.1530 C.3       1 VCL1        0.0000
    228 H35R        3.3090    9.2620    0.2160 H         1 VCL1        0.0000
    229 H35S        1.5550    9.1000    0.5350 H         1 VCL1        0.0000
    230 C36         2.0780    9.2900   -1.5750 C.3       1 VCL1        0.0000
    231 H36R        1.7960    8.4190   -2.2100 H         1 VCL1        0.0000
    232 H36S        3.0010    9.7350   -2.0080 H         1 VCL1        0.0000
    233 C37         0.9310   10.3070   -1.6380 C.3       1 VCL1        0.0000
    234 H37R        1.1520   11.1730   -0.9780 H         1 VCL1        0.0000
    235 H37S        0.0180    9.8120   -1.2340 H         1 VCL1        0.0000
    236 C38         0.6410   10.7750   -3.0740 C.3       1 VCL1        0.0000
    237 H38R       -0.4570   10.7020   -3.2450 H         1 VCL1        0.0000
    238 H38S        1.1310   10.0740   -3.7820 H         1 VCL1        0.0000
    239 C39         1.0830   12.2160   -3.3890 C.3       1 VCL1        0.0000
    240 H39R        2.0070   12.1950   -4.0080 H         1 VCL1        0.0000
    241 H39S        1.3310   12.7480   -2.4440 H         1 VCL1        0.0000
    242 C310       -0.0130   13.0200   -4.1090 C.3       1 VCL1        0.0000
    243 H310       -0.9340   12.9940   -3.4830 H         1 VCL1        0.0000
    244 H310       -0.2520   12.5370   -5.0810 H         1 VCL1        0.0000
    245 C311        0.3580   14.4900   -4.3520 C.3       1 VCL1        0.0000
    246 H311        1.2770   14.5400   -4.9790 H         1 VCL1        0.0000
    247 H311        0.5990   14.9620   -3.3730 H         1 VCL1        0.0000
    248 C312       -0.7610   15.2830   -5.0350 C.3       1 VCL1        0.0000
    249 H312       -1.6990   15.2370   -4.4430 H         1 VCL1        0.0000
    250 H312       -0.9750   14.8520   -6.0330 H         1 VCL1        0.0000
    251 H312       -0.4770   16.3490   -5.1700 H         1 VCL1        0.0000
    252 C11         4.0370    1.6630   -1.1910 C.2       1 VCL1        0.0000
    253 O11         3.7570    2.7860   -1.5890 O.2       1 VCL1        0.0000
    254 C12         5.0920    0.7990   -1.8560 C.3       1 VCL1        0.0000
    255 H12R        4.5360   -0.0240   -2.3540 H         1 VCL1        0.0000
    256 H12S        5.7320    0.3330   -1.0800 H         1 VCL1        0.0000
    257 C13         5.9400    1.5820   -2.8740 C.3       1 VCL1        0.0000
    258 H13R        5.3480    2.3860   -3.3640 H         1 VCL1        0.0000
    259 O13         6.3530    0.6730   -3.8830 O.3       1 VCL1        0.0000
    260 HO13        5.6360    0.1990   -4.3090 H         1 VCL1        0.0000
    261 C14         7.1960    2.1820   -2.2090 C.3       1 VCL1        0.0000
    262 H14R        7.7170    1.3490   -1.6840 H         1 VCL1        0.0000
    263 H14S        6.8740    2.9120   -1.4360 H         1 VCL1        0.0000
    264 C15         8.2160    2.8500   -3.1530 C.3       1 VCL1        0.0000
    265 H15R        8.5750    2.1040   -3.8960 H         1 VCL1        0.0000
    266 H15S        9.0920    3.1610   -2.5420 H         1 VCL1        0.0000
    267 C16         7.6790    4.0820   -3.8920 C.3       1 VCL1        0.0000
    268 H16R        7.0880    4.6930   -3.1740 H         1 VCL1        0.0000
    269 H16S        6.9860    3.7410   -4.6920 H         1 VCL1        0.0000
    270 C17         8.7990    4.9570   -4.4860 C.3       1 VCL1        0.0000
    271 H17R        9.4570    4.3390   -5.1350 H         1 VCL1        0.0000
    272 H17S        9.4220    5.3450   -3.6500 H         1 VCL1        0.0000
    273 C18         8.2600    6.1470   -5.2950 C.3       1 VCL1        0.0000
    274 H18R        7.5120    6.6710   -4.6610 H         1 VCL1        0.0000
    275 H18S        7.7350    5.7620   -6.1960 H         1 VCL1        0.0000
    276 C19         9.3290    7.1730   -5.7210 C.3       1 VCL1        0.0000
    277 H19R       10.0630    6.7000   -6.4080 H         1 VCL1        0.0000
    278 H19S        9.8770    7.5110   -4.8120 H         1 VCL1        0.0000
    279 C110        8.6990    8.4040   -6.3940 C.3       1 VCL1        0.0000
    280 H110        7.9040    8.7660   -5.7010 H         1 VCL1        0.0000
    281 H110        8.2040    8.1090   -7.3450 H         1 VCL1        0.0000
    282 C111        9.6480    9.5920   -6.6420 C.3       1 VCL1        0.0000
    283 H111       10.3310    9.7320   -5.7770 H         1 VCL1        0.0000
    284 H111        9.0120   10.5040   -6.7020 H         1 VCL1        0.0000
    285 C112       10.4450    9.5250   -7.9550 C.3       1 VCL1        0.0000
    286 H112        9.8090    9.0690   -8.7460 H         1 VCL1        0.0000
    287 H112       11.3350    8.8730   -7.8170 H         1 VCL1        0.0000
    288 C113       10.8830   10.9170   -8.4470 C.3       1 VCL1        0.0000
    289 H113       11.4930   11.4090   -7.6560 H         1 VCL1        0.0000
    290 H113        9.9710   11.5420   -8.5950 H         1 VCL1        0.0000
    291 C114       11.6790   10.8920   -9.7550 C.3       1 VCL1        0.0000
    292 H114       11.1000   10.3810  -10.5540 H         1 VCL1        0.0000
    293 H114       12.6390   10.3500   -9.6170 H         1 VCL1        0.0000
    294 H114       11.9070   11.9250  -10.0960 H         1 VCL1        0.0000
@<TRIPOS>BOND
     1  219  216 1 
     2  214  213 1 
     3  218  216 1 
     4  216  213 1 
     5  216  217 1 
     6  213  215 1 
     7  213  210 1 
     8  183  182 1 
     9  184  182 1 
    10  208  207 1 
    11  182  185 1 
    12  182  179 1 
    13  212  210 1 
    14  210  207 1 
    15  210  211 1 
    16  209  207 1 
    17  177  176 1 
    18  207  204 1 
    19   94   92 1 
    20   90   89 1 
    21   84   83 1 
    22  135  132 1 
    23  292  291 1 
    24  179  176 1 
    25  179  181 1 
    26  179  180 1 
    27  100   98 1 
    28  178  176 1 
    29  176  173 1 
    30  202  201 1 
    31  294  291 1 
    32   78   76 1 
    33   85   83 1 
    34  131  129 1 
    35   72   71 2 
    36   92   89 1 
    37   92   93 1 
    38   92   95 1 
    39   89   91 1 
    40   89   86 1 
    41   83   86 1 
    42   83   80 1 
    43  171  170 1 
    44  291  293 1 
    45  291  288 1 
    46  106  104 1 
    47  204  201 1 
    48  204  205 1 
    49  204  206 1 
    50  132  133 1 
    51  132  129 1 
    52  132  134 1 
    53   69   68 1 
    54  203  201 1 
    55  105  104 1 
    56   82   80 1 
    57  201  198 1 
    58   96   95 1 
    59   98   99 1 
    60   98   95 1 
    61   98  101 1 
    62  130  129 1 
    63  129  126 1 
    64   86   88 1 
    65   86   87 1 
    66  175  173 1 
    67   95   97 1 
    68   76   79 1 
    69   76   77 1 
    70   76   73 1 
    71  173  170 1 
    72  173  174 1 
    73  104  101 1 
    74  104  107 1 
    75   80   68 1 
    76   80   81 1 
    77  170  172 1 
    78  170  167 1 
    79  286  285 1 
    80   71   73 1 
    81   71   70 1 
    82   68   70 1 
    83   68   65 1 
    84  290  288 1 
    85  101  102 1 
    86  101  103 1 
    87  288  285 1 
    88  288  289 1 
    89   66   65 1 
    90  165  164 1 
    91  125  123 1 
    92   73   74 1 
    93   73   75 1 
    94  196  195 1 
    95  198  200 1 
    96  198  199 1 
    97  198  195 1 
    98  285  287 1 
    99  285  282 1 
   100  169  167 1 
   101  126  128 1 
   102  126  123 1 
   103  126  127 1 
   104   65   67 1 
   105   65   63 1 
   106  167  164 1 
   107  167  168 1 
   108  281  279 1 
   109  195  197 1 
   110  195  192 1 
   111  164  166 1 
   112  164  161 1 
   113  123  124 1 
   114  123  120 1 
   115  159  158 1 
   116  121  120 1 
   117  284  282 1 
   118  282  279 1 
   119  282  283 1 
   120  160  158 1 
   121  119  117 1 
   122  277  276 1 
   123  194  192 1 
   124  279  276 1 
   125  279  280 1 
   126   63   64 2 
   127   63   62 1 
   128  120  117 1 
   129  120  122 1 
   130  115  114 1 
   131  275  273 1 
   132  158  161 1 
   133  158  155 1 
   134  192  193 1 
   135  192  189 1 
   136  161  163 1 
   137  161  162 1 
   138  250  248 1 
   139  190  189 1 
   140   62   60 1 
   141  117  114 1 
   142  117  118 1 
   143  276  273 1 
   144  276  278 1 
   145  153  152 1 
   146  116  114 1 
   147  114  111 1 
   148  154  152 1 
   149  273  274 1 
   150  273  270 1 
   151  189  191 1 
   152  189  186 1 
   153  251  248 1 
   154  271  270 1 
   155  145  144 2 
   156  244  242 1 
   157  248  249 1 
   158  248  245 1 
   159  246  245 1 
   160  152  155 1 
   161  152  149 1 
   162  155  157 1 
   163  155  156 1 
   164  109  108 1 
   165  269  267 1 
   166   29   27 1 
   167  188  186 1 
   168  270  267 1 
   169  270  272 1 
   170   60   27 1 
   171   60  108 1 
   172   60   61 1 
   173   28   27 1 
   174  142  141 1 
   175  245  242 1 
   176  245  247 1 
   177  260  259 1 
   178  186  141 1 
   179  186  187 1 
   180  147  146 1 
   181  111  108 1 
   182  111  113 1 
   183  111  112 1 
   184   27   25 1 
   185  242  243 1 
   186  242  239 1 
   187  108  110 1 
   188  144  146 1 
   189  144  143 1 
   190  240  239 1 
   191  265  264 1 
   192  267  268 1 
   193  267  264 1 
   194  259  257 1 
   195  238  236 1 
   196  137  136 2 
   197  141  143 1 
   198  141  138 1 
   199  146  149 1 
   200  146  148 1 
   201  149  151 1 
   202  149  150 1 
   203  239  236 1 
   204  239  241 1 
   205  258  257 1 
   206  237  236 1 
   207  264  266 1 
   208  264  261 1 
   209   21   18 2 
   210  236  233 1 
   211  257  261 1 
   212  257  254 1 
   213   25   23 1 
   214   25   26 2 
   215   23   22 1 
   216  136  138 1 
   217  136   32 am
   218   19   18 1 
   219  138  139 1 
   220  138  140 1 
   221  255  254 1 
   222  231  230 1 
   223  261  262 1 
   224  261  263 1 
   225   31   30 1 
   226   18   20 1 
   227   18   17 1 
   228  232  230 1 
   229   16   15 1 
   230  254  252 1 
   231  254  256 1 
   232  233  230 1 
   233  233  235 1 
   234  233  234 1 
   235  253  252 2 
   236  230  227 1 
   237   32   30 1 
   238   32   33 1 
   239   30   22 1 
   240   30    9 1 
   241   22   15 1 
   242   22   24 1 
   243  252   58 am
   244   15   17 1 
   245   15    6 1 
   246   42   41 1 
   247   57   56 1 
   248  226  224 1 
   249   45   47 2 
   250  225  224 1 
   251    5    4 1 
   252   58   56 1 
   253   58   59 1 
   254   11    9 1 
   255   11   12 1 
   256  227  224 1 
   257  227  228 1 
   258  227  229 1 
   259  224  220 1 
   260    9    7 1 
   261    9   10 1 
   262   40   41 1 
   263   40   38 1 
   264   56   41 1 
   265   56   48 1 
   266   41   43 1 
   267    7    6 1 
   268   35   34 1 
   269    6    4 1 
   270    6    8 1 
   271   54   53 1 
   272    4    1 1 
   273    4    2 1 
   274   46   47 1 
   275   13   12 1 
   276   47   43 1 
   277   47   44 1 
   278   12   38 1 
   279   12   14 1 
   280   52   51 2 
   281   51   50 1 
   282   51   53 1 
   283   38   34 1 
   284   38   39 1 
   285   34   48 1 
   286   34   36 1 
   287   48   50 1 
   288   48   49 1 
   289  220   53 1 
   290  220  221 1 
   291  220  222 1 
   292   53   55 1 
   293    3    2 1 
   294   37   36 1 
   295  223  222 1 
