@<TRIPOS>MOLECULE
C:\Users\Praveer\PycharmProjects\pdb_to_mol2_converter\data\pdb\vclipd.pdb
  305   306     0     0     0
SMALL
GASTEIGER

@<TRIPOS>ATOM
      1 HB6S       -7.9410    2.3890    0.9060 H         1 VCL1        0.0000
      2 OB6        -6.7940    0.8870    1.8030 O.3       1 VCL1        0.0000
      3 HOB6       -5.9980    0.3990    1.5700 H         1 VCL1        0.0000
      4 CB6        -7.0860    1.7130    0.6700 C.3       1 VCL1        0.0000
      5 HB6R       -7.4010    1.0790   -0.1890 H         1 VCL1        0.0000
      6 CB5        -5.8710    2.5280    0.2740 C.3       1 VCL1        0.0000
      7 OB5        -4.7320    1.6590    0.1230 O.3       1 VCL1        0.0000
      8 HB5        -5.6790    3.2620    1.0940 H         1 VCL1        0.0000
      9 CB1        -3.5330    2.4190   -0.0490 C.3       1 VCL1        0.0000
     10 HB1        -3.3980    3.1110    0.8130 H         1 VCL1        0.0000
     11 OA6        -2.3980    1.6050   -0.1780 O.3       1 VCL1        0.0000
     12 CA6        -2.1230    0.8500    1.0000 C.3       1 VCL1        0.0000
     13 HA6R       -2.5740   -0.1640    0.9020 H         1 VCL1        0.0000
     14 HA6S       -2.5580    1.3400    1.8970 H         1 VCL1        0.0000
     15 CB4        -6.0460    3.2730   -1.0330 C.3       1 VCL1        0.0000
     16 HB4        -6.1990    2.5150   -1.8410 H         1 VCL1        0.0000
     17 OB4        -7.1630    4.1350   -0.8580 O.3       1 VCL1        0.0000
     18 PB         -8.4100    4.2290   -1.9420 P.3       1 VCL1        0.0000
     19 OPB4       -8.3210    5.6480   -2.4960 O.3       1 VCL1        0.0000
     20 OPB3       -9.6540    3.9640   -1.1080 O.3       1 VCL1        0.0000
     21 OPB2       -8.1510    3.1660   -3.0010 O.2       1 VCL1        0.0000
     22 CB3        -4.8120    4.0790   -1.3390 C.3       1 VCL1        0.0000
     23 OB3        -4.9270    4.6250   -2.6460 O.3       1 VCL1        0.0000
     24 HB3        -4.6790    4.8520   -0.5390 H         1 VCL1        0.0000
     25 C71        -5.3700    5.8810   -2.7040 C.2       1 VCL1        0.0000
     26 O71        -5.0300    6.7510   -1.9090 O.2       1 VCL1        0.0000
     27 C72        -5.6670    6.1420   -4.1670 C.3       1 VCL1        0.0000
     28 H72R       -6.6760    5.7110   -4.3530 H         1 VCL1        0.0000
     29 H72S       -4.9370    5.6050   -4.8040 H         1 VCL1        0.0000
     30 CB2        -3.5830    3.2150   -1.3280 C.3       1 VCL1        0.0000
     31 HB2        -3.6810    2.4840   -2.1740 H         1 VCL1        0.0000
     32 NB2        -2.3720    4.0080   -1.4890 N.am      1 VCL1        0.0000
     33 HNB2       -2.1090    4.5540   -0.7040 H         1 VCL1        0.0000
     34 CA4         0.0810    2.1110    1.1620 C.3       1 VCL1        0.0000
     35 HA4        -0.1850    2.6250    0.2090 H         1 VCL1        0.0000
     36 OA4        -0.3870    2.8970    2.2550 O.3       1 VCL1        0.0000
     37 HOA4       -0.1200    3.8140    2.0650 H         1 VCL1        0.0000
     38 CA5        -0.6210    0.7520    1.1590 C.3       1 VCL1        0.0000
     39 HA5        -0.4100    0.2370    2.1280 H         1 VCL1        0.0000
     40 OA5        -0.1560   -0.0540    0.0650 O.3       1 VCL1        0.0000
     41 CA1         1.2520   -0.2790    0.0950 C.3       1 VCL1        0.0000
     42 HA1         1.5090   -0.8470   -0.8380 H         1 VCL1        0.0000
     43 NC          2.6240   -5.7430    0.0540 N.4       1 VCL1        0.0000
     44 HNC1        1.7500   -6.2900    0.0290 H         1 VCL1        0.0000
     45 HNC2        3.2310   -5.8940   -0.7740 H         1 VCL1        0.0000
     46 HNC3        2.3560   -4.7100    0.0350 H         1 VCL1        0.0000
     47 CC2         3.4430   -5.9560    1.2880 C.3       1 VCL1        0.0000
     48 HC21        3.4930   -7.0320    1.5040 H         1 VCL1        0.0000
     49 HC22        2.9140   -5.4720    2.1240 H         1 VCL1        0.0000
     50 CC1         4.8720   -5.3790    1.1290 C.3       1 VCL1        0.0000
     51 HC11        5.5270   -6.1550    0.6770 H         1 VCL1        0.0000
     52 HC12        5.2820   -5.2000    2.1520 H         1 VCL1        0.0000
     53 OC2         4.9250   -4.2330    0.2810 O.3       1 VCL1        0.0000
     54 PC          5.2700   -2.7160    0.8490 P.3       1 VCL1        0.0000
     55 OC1         3.8440   -1.9570    0.8220 O.3       1 VCL1        0.0000
     56 OPC3        6.1540   -2.0290   -0.1830 O.2       1 VCL1        0.0000
     57 OPC4        5.7640   -2.7940    2.2790 O.3       1 VCL1        0.0000
     58 PA          2.3400   -2.4250    1.1680 P.3       1 VCL1        0.0000
     59 OA1         1.5670   -0.9910    1.2680 O.3       1 VCL1        0.0000
     60 OPA3        1.8340   -3.2360   -0.0210 O.2       1 VCL1        0.0000
     61 OPA4        2.3070   -3.1270    2.4970 O.3       1 VCL1        0.0000
     62 CA3         1.5970    1.9480    1.1740 C.3       1 VCL1        0.0000
     63 HA3         1.8450    1.3990    2.1160 H         1 VCL1        0.0000
     64 OA3         2.4650    3.0890    1.1210 O.3       1 VCL1        0.0000
     65 C31         2.1370    4.3570    1.1170 C.2       1 VCL1        0.0000
     66 O31         1.0140    4.8370    1.1610 O.2       1 VCL1        0.0000
     67 C32         3.4050    5.1660    0.9060 C.3       1 VCL1        0.0000
     68 H32R        3.7330    4.9600   -0.1340 H         1 VCL1        0.0000
     69 H32S        4.2030    4.8140    1.5910 H         1 VCL1        0.0000
     70 CA2         1.9860    1.0430    0.0150 C.3       1 VCL1        0.0000
     71 HA2         1.5790    1.5590   -0.8960 H         1 VCL1        0.0000
     72 NA2         3.4060    0.8220   -0.2250 N.am      1 VCL1        0.0000
     73 HNA2        3.7550   -0.0600    0.1000 H         1 VCL1        0.0000
     74 C73        -5.6530    7.6420   -4.4540 C.3       1 VCL1        0.0000
     75 H73R       -6.2800    8.1880   -3.7080 H         1 VCL1        0.0000
     76 O73        -6.2520    7.8000   -5.7240 O.3       1 VCL1        0.0000
     77 HO73       -7.1470    7.4330   -5.7490 H         1 VCL1        0.0000
     78 C74        -4.2270    8.2490   -4.4730 C.3       1 VCL1        0.0000
     79 H74R       -3.6060    7.6760   -5.1940 H         1 VCL1        0.0000
     80 H74S       -3.7650    8.1130   -3.4720 H         1 VCL1        0.0000
     81 C75        -4.1820    9.7480   -4.8240 C.3       1 VCL1        0.0000
     82 H75R       -3.5360   10.2910   -4.0990 H         1 VCL1        0.0000
     83 H75S       -5.2160   10.1500   -4.7300 H         1 VCL1        0.0000
     84 C76        -3.6740    9.9940   -6.2510 C.3       1 VCL1        0.0000
     85 H76R       -4.1020    9.2010   -6.9090 H         1 VCL1        0.0000
     86 H76S       -2.5700    9.8760   -6.2740 H         1 VCL1        0.0000
     87 C77        -4.0830   11.3580   -6.8240 C.3       1 VCL1        0.0000
     88 H77R       -4.7420   11.8970   -6.1090 H         1 VCL1        0.0000
     89 H77S       -4.6870   11.1590   -7.7400 H         1 VCL1        0.0000
     90 C78        -2.8990   12.2530   -7.2150 C.3       1 VCL1        0.0000
     91 H78R       -2.1600   11.6310   -7.7690 H         1 VCL1        0.0000
     92 H78S       -2.3970   12.6480   -6.3040 H         1 VCL1        0.0000
     93 C79        -3.3410   13.3980   -8.1360 C.3       1 VCL1        0.0000
     94 H79R       -3.9610   14.1260   -7.5670 H         1 VCL1        0.0000
     95 H79S       -3.9830   12.9640   -8.9360 H         1 VCL1        0.0000
     96 C710       -2.1750   14.1230   -8.8200 C.3       1 VCL1        0.0000
     97 H710       -1.4560   13.3700   -9.2090 H         1 VCL1        0.0000
     98 H710       -1.6440   14.7530   -8.0730 H         1 VCL1        0.0000
     99 C711       -2.6400   14.9760  -10.0070 C.3       1 VCL1        0.0000
    100 H711       -3.6450   15.3980   -9.7770 H         1 VCL1        0.0000
    101 H711       -2.7610   14.3060  -10.8900 H         1 VCL1        0.0000
    102 C712       -1.6950   16.1280  -10.3580 C.3       1 VCL1        0.0000
    103 H712       -0.6570   15.7630  -10.4940 H         1 VCL1        0.0000
    104 H712       -1.6910   16.8850   -9.5440 H         1 VCL1        0.0000
    105 H712       -2.0210   16.6240  -11.2970 H         1 VCL1        0.0000
    106 C51        -1.5310    3.9370   -2.5230 C.2       1 VCL1        0.0000
    107 O51        -1.7990    3.3830   -3.5860 O.2       1 VCL1        0.0000
    108 C52        -0.1690    4.5300   -2.2790 C.3       1 VCL1        0.0000
    109 H52R        0.4880    3.7170   -1.8990 H         1 VCL1        0.0000
    110 H52S       -0.2260    5.3250   -1.5090 H         1 VCL1        0.0000
    111 C53         0.4390    5.0940   -3.5680 C.3       1 VCL1        0.0000
    112 H53R        0.3520    4.3260   -4.3780 H         1 VCL1        0.0000
    113 O53         1.8010    5.3740   -3.2200 O.3       1 VCL1        0.0000
    114 C61         2.7060    4.9750   -4.1100 C.2       1 VCL1        0.0000
    115 O61         2.4640    4.5810   -5.2370 O.2       1 VCL1        0.0000
    116 C62         4.0970    5.3300   -3.5910 C.3       1 VCL1        0.0000
    117 H62R        4.8390    4.8360   -4.2480 H         1 VCL1        0.0000
    118 H62S        4.1910    4.9010   -2.5710 H         1 VCL1        0.0000
    119 C63         4.3460    6.8520   -3.5360 C.3       1 VCL1        0.0000
    120 H63R        5.2960    7.0240   -2.9800 H         1 VCL1        0.0000
    121 H63S        3.5370    7.3570   -2.9610 H         1 VCL1        0.0000
    122 C64         4.4850    7.4950   -4.9230 C.3       1 VCL1        0.0000
    123 H64R        3.5540    7.3440   -5.5120 H         1 VCL1        0.0000
    124 H64S        5.3080    6.9950   -5.4800 H         1 VCL1        0.0000
    125 C65         4.7740    8.9960   -4.8070 C.3       1 VCL1        0.0000
    126 H65R        5.7030    9.1230   -4.2060 H         1 VCL1        0.0000
    127 H65S        3.9440    9.4850   -4.2510 H         1 VCL1        0.0000
    128 C66         4.9610    9.7040   -6.1550 C.3       1 VCL1        0.0000
    129 H66R        4.0560    9.5780   -6.7900 H         1 VCL1        0.0000
    130 H66S        5.8140    9.2190   -6.6810 H         1 VCL1        0.0000
    131 C67         5.2550   11.1990   -5.9630 C.3       1 VCL1        0.0000
    132 H67R        5.8890   11.3110   -5.0530 H         1 VCL1        0.0000
    133 H67S        4.3060   11.7410   -5.7560 H         1 VCL1        0.0000
    134 C68         6.0080   11.8400   -7.1390 C.3       1 VCL1        0.0000
    135 H68R        6.3270   11.0580   -7.8630 H         1 VCL1        0.0000
    136 H68S        6.9360   12.3150   -6.7460 H         1 VCL1        0.0000
    137 C69         5.2120   12.9300   -7.8660 C.3       1 VCL1        0.0000
    138 H69R        4.9730   13.7400   -7.1410 H         1 VCL1        0.0000
    139 H69S        4.2460   12.5190   -8.2250 H         1 VCL1        0.0000
    140 C610        5.9960   13.5140   -9.0510 C.3       1 VCL1        0.0000
    141 H610        5.6450   13.0400   -9.9940 H         1 VCL1        0.0000
    142 H610        7.0740   13.2570   -8.9400 H         1 VCL1        0.0000
    143 C611        5.8860   15.0400   -9.1560 C.3       1 VCL1        0.0000
    144 H611        6.3140   15.4980   -8.2350 H         1 VCL1        0.0000
    145 H611        4.8140   15.3300   -9.2180 H         1 VCL1        0.0000
    146 C612        6.6210   15.5840  -10.3880 C.3       1 VCL1        0.0000
    147 H612        6.1210   15.1990  -11.3060 H         1 VCL1        0.0000
    148 H612        7.6660   15.2010  -10.3880 H         1 VCL1        0.0000
    149 C613        6.6620   17.1150  -10.4370 C.3       1 VCL1        0.0000
    150 H613        7.3020   17.4870   -9.6050 H         1 VCL1        0.0000
    151 H613        5.6340   17.5060  -10.2630 H         1 VCL1        0.0000
    152 C614        7.1910   17.6590  -11.7660 C.3       1 VCL1        0.0000
    153 H614        6.5190   17.3520  -12.5970 H         1 VCL1        0.0000
    154 H614        8.2090   17.2660  -11.9750 H         1 VCL1        0.0000
    155 H614        7.2390   18.7690  -11.7440 H         1 VCL1        0.0000
    156 C54        -0.2480    6.4020   -4.0350 C.3       1 VCL1        0.0000
    157 H54R       -0.3520    7.0880   -3.1670 H         1 VCL1        0.0000
    158 H54S       -1.2680    6.1480   -4.4020 H         1 VCL1        0.0000
    159 C55         0.5300    7.1160   -5.1540 C.3       1 VCL1        0.0000
    160 H55R        0.7170    6.3860   -5.9750 H         1 VCL1        0.0000
    161 H55S        1.5190    7.4290   -4.7530 H         1 VCL1        0.0000
    162 C56        -0.1450    8.3550   -5.7480 C.3       1 VCL1        0.0000
    163 H56R       -0.1580    9.1660   -4.9870 H         1 VCL1        0.0000
    164 H56S       -1.2000    8.1200   -6.0100 H         1 VCL1        0.0000
    165 C57         0.6010    8.8140   -7.0110 C.3       1 VCL1        0.0000
    166 H57R        0.1110    8.3480   -7.8950 H         1 VCL1        0.0000
    167 H57S        1.6480    8.4310   -6.9810 H         1 VCL1        0.0000
    168 C58         0.6770   10.3340   -7.1980 C.3       1 VCL1        0.0000
    169 H58R        1.4700   10.7430   -6.5320 H         1 VCL1        0.0000
    170 H58S       -0.2850   10.8050   -6.9050 H         1 VCL1        0.0000
    171 C59         0.9970   10.6840   -8.6570 C.3       1 VCL1        0.0000
    172 H59R        0.1270   10.4030   -9.2930 H         1 VCL1        0.0000
    173 H59S        1.8630   10.0710   -8.9920 H         1 VCL1        0.0000
    174 C510        1.3280   12.1620   -8.8810 C.3       1 VCL1        0.0000
    175 H510        2.1200   12.4820   -8.1720 H         1 VCL1        0.0000
    176 H510        0.4300   12.7710   -8.6530 H         1 VCL1        0.0000
    177 C511        1.7950   12.4210  -10.3200 C.3       1 VCL1        0.0000
    178 H511        1.2020   11.7880  -11.0180 H         1 VCL1        0.0000
    179 H511        2.8600   12.1120  -10.4100 H         1 VCL1        0.0000
    180 C512        1.6350   13.8830  -10.7540 C.3       1 VCL1        0.0000
    181 H512        1.9620   14.5570   -9.9320 H         1 VCL1        0.0000
    182 H512        0.5540   14.0720  -10.9390 H         1 VCL1        0.0000
    183 C513        2.4300   14.2230  -12.0210 C.3       1 VCL1        0.0000
    184 H513        2.1810   13.4850  -12.8160 H         1 VCL1        0.0000
    185 H513        3.5160   14.1180  -11.7930 H         1 VCL1        0.0000
    186 C514        2.1570   15.6360  -12.5450 C.3       1 VCL1        0.0000
    187 H514        2.3590   16.3900  -11.7540 H         1 VCL1        0.0000
    188 H514        1.0960   15.7350  -12.8600 H         1 VCL1        0.0000
    189 H514        2.8050   15.8600  -13.4190 H         1 VCL1        0.0000
    190 C33         3.1740    6.6750    1.0880 C.3       1 VCL1        0.0000
    191 H33R        2.3000    7.0110    0.4830 H         1 VCL1        0.0000
    192 O33         4.3340    7.3200    0.5950 O.3       1 VCL1        0.0000
    193 HO33        4.2980    8.2770    0.6240 H         1 VCL1        0.0000
    194 C34         2.9920    7.1000    2.5610 C.3       1 VCL1        0.0000
    195 H34R        3.7840    6.5990    3.1630 H         1 VCL1        0.0000
    196 H34S        2.0120    6.7180    2.9200 H         1 VCL1        0.0000
    197 C35         3.0750    8.6180    2.8540 C.3       1 VCL1        0.0000
    198 H35R        4.1200    8.9730    2.7070 H         1 VCL1        0.0000
    199 H35S        2.8370    8.7590    3.9330 H         1 VCL1        0.0000
    200 C36         2.1190    9.4940    2.0280 C.3       1 VCL1        0.0000
    201 H36R        1.1350    8.9810    1.9370 H         1 VCL1        0.0000
    202 H36S        2.5260    9.6280    1.0020 H         1 VCL1        0.0000
    203 C37         1.8760   10.8760    2.6610 C.3       1 VCL1        0.0000
    204 H37R        2.8460   11.4000    2.8060 H         1 VCL1        0.0000
    205 H37S        1.4230   10.7340    3.6680 H         1 VCL1        0.0000
    206 C38         0.9430   11.7610    1.8190 C.3       1 VCL1        0.0000
    207 H38R       -0.0020   11.2030    1.6270 H         1 VCL1        0.0000
    208 H38S        1.4170   11.9720    0.8350 H         1 VCL1        0.0000
    209 C39         0.5940   13.0890    2.5090 C.3       1 VCL1        0.0000
    210 H39R        1.5230   13.6720    2.6960 H         1 VCL1        0.0000
    211 H39S        0.1360   12.8620    3.4980 H         1 VCL1        0.0000
    212 C310       -0.3900   13.9410    1.6910 C.3       1 VCL1        0.0000
    213 H310       -1.2440   13.2990    1.3780 H         1 VCL1        0.0000
    214 H310        0.1140   14.3040    0.7680 H         1 VCL1        0.0000
    215 C311       -0.9520   15.1360    2.4760 C.3       1 VCL1        0.0000
    216 H311       -0.1110   15.7950    2.7870 H         1 VCL1        0.0000
    217 H311       -1.4370   14.7540    3.4030 H         1 VCL1        0.0000
    218 C312       -1.9760   15.9570    1.6860 C.3       1 VCL1        0.0000
    219 H312       -2.8100   15.3090    1.3390 H         1 VCL1        0.0000
    220 H312       -1.5010   16.4220    0.7960 H         1 VCL1        0.0000
    221 H312       -2.4020   16.7650    2.3190 H         1 VCL1        0.0000
    222 C11         4.0730    1.5260   -1.1530 C.2       1 VCL1        0.0000
    223 O11         3.7870    2.6920   -1.4080 O.2       1 VCL1        0.0000
    224 C12         5.0940    0.7670   -1.9800 C.3       1 VCL1        0.0000
    225 H12R        4.5270    0.0230   -2.5770 H         1 VCL1        0.0000
    226 H12S        5.7850    0.2090   -1.3180 H         1 VCL1        0.0000
    227 C13         5.8720    1.7020   -2.9360 C.3       1 VCL1        0.0000
    228 H13R        5.2840    2.6280   -3.1420 H         1 VCL1        0.0000
    229 O13         6.1690    0.9580   -4.1310 O.3       1 VCL1        0.0000
    230 C21         5.6880    1.4710   -5.2610 C.2       1 VCL1        0.0000
    231 O21         5.0250    2.4890   -5.3580 O.2       1 VCL1        0.0000
    232 C22         6.0480    0.5790   -6.4480 C.3       1 VCL1        0.0000
    233 H22S        5.1490    0.4910   -7.0920 H         1 VCL1        0.0000
    234 H22R        6.3010   -0.4300   -6.0570 H         1 VCL1        0.0000
    235 C23         7.2340    1.1320   -7.2750 C.3       1 VCL1        0.0000
    236 H23R        7.5790    0.3160   -7.9510 H         1 VCL1        0.0000
    237 H23S        8.0870    1.3890   -6.6090 H         1 VCL1        0.0000
    238 C24         6.8910    2.3410   -8.1650 C.3       1 VCL1        0.0000
    239 H24R        6.6050    3.2090   -7.5280 H         1 VCL1        0.0000
    240 H24S        6.0150    2.0920   -8.8060 H         1 VCL1        0.0000
    241 C25         8.0790    2.7330   -9.0610 C.3       1 VCL1        0.0000
    242 H25R        8.4220    1.8280   -9.6130 H         1 VCL1        0.0000
    243 H25S        8.9220    3.0710   -8.4190 H         1 VCL1        0.0000
    244 C26         7.7610    3.8230  -10.0960 C.3       1 VCL1        0.0000
    245 H26R        7.3630    4.7270   -9.5840 H         1 VCL1        0.0000
    246 H26S        6.9660    3.4470  -10.7780 H         1 VCL1        0.0000
    247 C27         8.9990    4.2180  -10.9210 C.3       1 VCL1        0.0000
    248 H27R        9.5930    3.3080  -11.1640 H         1 VCL1        0.0000
    249 H27S        9.6410    4.8730  -10.2900 H         1 VCL1        0.0000
    250 C28         8.6580    4.9380  -12.2370 C.3       1 VCL1        0.0000
    251 H28R        7.6520    5.4060  -12.1550 H         1 VCL1        0.0000
    252 H28S        8.6090    4.1860  -13.0570 H         1 VCL1        0.0000
    253 C29         9.6740    6.0300  -12.6040 C.3       1 VCL1        0.0000
    254 H29R       10.6940    5.5870  -12.6220 H         1 VCL1        0.0000
    255 H29S        9.6650    6.8170  -11.8170 H         1 VCL1        0.0000
    256 C210        9.3850    6.6800  -13.9660 C.3       1 VCL1        0.0000
    257 H210        8.4330    7.2520  -13.9030 H         1 VCL1        0.0000
    258 H210        9.2500    5.8810  -14.7300 H         1 VCL1        0.0000
    259 C211       10.5160    7.6090  -14.4290 C.3       1 VCL1        0.0000
    260 H211       11.4290    6.9970  -14.6040 H         1 VCL1        0.0000
    261 H211       10.7500    8.3400  -13.6230 H         1 VCL1        0.0000
    262 C212       10.1720    8.3800  -15.7120 C.3       1 VCL1        0.0000
    263 H212        9.3770    9.1250  -15.4840 H         1 VCL1        0.0000
    264 H212        9.7630    7.6730  -16.4690 H         1 VCL1        0.0000
    265 C213       11.3870    9.0970  -16.3140 C.3       1 VCL1        0.0000
    266 H213       12.1180    8.3280  -16.6540 H         1 VCL1        0.0000
    267 H213       11.8830    9.6980  -15.5180 H         1 VCL1        0.0000
    268 C214       11.0390   10.0150  -17.4890 C.3       1 VCL1        0.0000
    269 H214       10.3820   10.8460  -17.1510 H         1 VCL1        0.0000
    270 H214       10.5070    9.4500  -18.2850 H         1 VCL1        0.0000
    271 H214       11.9610   10.4550  -17.9270 H         1 VCL1        0.0000
    272 C14         7.2080    2.1330   -2.2890 C.3       1 VCL1        0.0000
    273 H14R        7.6990    1.2160   -1.8930 H         1 VCL1        0.0000
    274 H14S        6.9800    2.7910   -1.4220 H         1 VCL1        0.0000
    275 C15         8.2190    2.8370   -3.2170 C.3       1 VCL1        0.0000
    276 H15R        8.5740    2.1210   -3.9930 H         1 VCL1        0.0000
    277 H15S        9.0990    3.1160   -2.5950 H         1 VCL1        0.0000
    278 C16         7.6870    4.1020   -3.9030 C.3       1 VCL1        0.0000
    279 H16R        7.0390    4.6720   -3.2020 H         1 VCL1        0.0000
    280 H16S        7.0650    3.8110   -4.7770 H         1 VCL1        0.0000
    281 C17         8.8160    5.0210   -4.3840 C.3       1 VCL1        0.0000
    282 H17R        9.5480    4.4240   -4.9720 H         1 VCL1        0.0000
    283 H17S        9.3520    5.4310   -3.4990 H         1 VCL1        0.0000
    284 C18         8.3040    6.1770   -5.2500 C.3       1 VCL1        0.0000
    285 H18R        7.5520    6.7620   -4.6710 H         1 VCL1        0.0000
    286 H18S        7.7930    5.7700   -6.1510 H         1 VCL1        0.0000
    287 C19         9.4440    7.1020   -5.6880 C.3       1 VCL1        0.0000
    288 H19R       10.1780    6.5340   -6.3020 H         1 VCL1        0.0000
    289 H19S        9.9710    7.4540   -4.7720 H         1 VCL1        0.0000
    290 C110        8.9540    8.3190   -6.4790 C.3       1 VCL1        0.0000
    291 H110        8.1260    8.7940   -5.9060 H         1 VCL1        0.0000
    292 H110        8.5390    7.9940   -7.4600 H         1 VCL1        0.0000
    293 C111       10.0620    9.3600   -6.6820 C.3       1 VCL1        0.0000
    294 H111       10.8780    8.9220   -7.2970 H         1 VCL1        0.0000
    295 H111       10.4980    9.6210   -5.6900 H         1 VCL1        0.0000
    296 C112        9.5420   10.6480   -7.3320 C.3       1 VCL1        0.0000
    297 H112        8.6550   10.9910   -6.7570 H         1 VCL1        0.0000
    298 H112        9.1980   10.4350   -8.3670 H         1 VCL1        0.0000
    299 C113       10.5840   11.7740   -7.3440 C.3       1 VCL1        0.0000
    300 H113       11.4860   11.4380   -7.9040 H         1 VCL1        0.0000
    301 H113       10.9090   11.9700   -6.2950 H         1 VCL1        0.0000
    302 C114       10.0600   13.0710   -7.9680 C.3       1 VCL1        0.0000
    303 H114        9.1600   13.4260   -7.4210 H         1 VCL1        0.0000
    304 H114        9.7790   12.9180   -9.0320 H         1 VCL1        0.0000
    305 H114       10.8370   13.8650   -7.9270 H         1 VCL1        0.0000
@<TRIPOS>BOND
     1  270  268 1 
     2  271  268 1 
     3  268  269 1 
     4  268  265 1 
     5  266  265 1 
     6  264  262 1 
     7  265  262 1 
     8  265  267 1 
     9  262  263 1 
    10  262  259 1 
    11  258  256 1 
    12  260  259 1 
    13  259  256 1 
    14  259  261 1 
    15  256  257 1 
    16  256  253 1 
    17  189  186 1 
    18  252  250 1 
    19  188  186 1 
    20  184  183 1 
    21  254  253 1 
    22  253  250 1 
    23  253  255 1 
    24  153  152 1 
    25  186  183 1 
    26  186  187 1 
    27  250  251 1 
    28  250  247 1 
    29  183  185 1 
    30  183  180 1 
    31  154  152 1 
    32  152  155 1 
    33  152  149 1 
    34  147  146 1 
    35  105  102 1 
    36  248  247 1 
    37  178  177 1 
    38  182  180 1 
    39  247  249 1 
    40  247  244 1 
    41  101   99 1 
    42  246  244 1 
    43  180  177 1 
    44  180  181 1 
    45  103  102 1 
    46  149  146 1 
    47  149  151 1 
    48  149  150 1 
    49  179  177 1 
    50  146  148 1 
    51  146  143 1 
    52  102   99 1 
    53  102  104 1 
    54  177  174 1 
    55  244  245 1 
    56  244  241 1 
    57   99  100 1 
    58   99   96 1 
    59  141  140 1 
    60  242  241 1 
    61  172  171 1 
    62  145  143 1 
    63   97   96 1 
    64  143  140 1 
    65  143  144 1 
    66  241  243 1 
    67  241  238 1 
    68  140  142 1 
    69  140  137 1 
    70  304  302 1 
    71  173  171 1 
    72   95   93 1 
    73  174  171 1 
    74  174  176 1 
    75  174  175 1 
    76   96   93 1 
    77   96   98 1 
    78  240  238 1 
    79  171  168 1 
    80  298  296 1 
    81  139  137 1 
    82  238  239 1 
    83  238  235 1 
    84   93   94 1 
    85   93   90 1 
    86  302  305 1 
    87  302  303 1 
    88  302  299 1 
    89  236  235 1 
    90  300  299 1 
    91  166  165 1 
    92  137  138 1 
    93  137  134 1 
    94  135  134 1 
    95   91   90 1 
    96   89   87 1 
    97  292  290 1 
    98  299  296 1 
    99  299  301 1 
   100  296  297 1 
   101  296  293 1 
   102  294  293 1 
   103  235  237 1 
   104  235  232 1 
   105   90   87 1 
   106   90   92 1 
   107  168  165 1 
   108  168  170 1 
   109  168  169 1 
   110  134  136 1 
   111  134  131 1 
   112  233  232 1 
   113  165  167 1 
   114  165  162 1 
   115   85   84 1 
   116   87   84 1 
   117   87   88 1 
   118  129  128 1 
   119  293  290 1 
   120  293  295 1 
   121  130  128 1 
   122  290  291 1 
   123  290  287 1 
   124  232  234 1 
   125  232  230 1 
   126  288  287 1 
   127   86   84 1 
   128   84   81 1 
   129  128  131 1 
   130  128  125 1 
   131  286  284 1 
   132  164  162 1 
   133  160  159 1 
   134  131  133 1 
   135  131  132 1 
   136   77   76 1 
   137  162  159 1 
   138  162  163 1 
   139   76   74 1 
   140  287  284 1 
   141  287  289 1 
   142  123  122 1 
   143  124  122 1 
   144  231  230 2 
   145  230  229 1 
   146  284  285 1 
   147  284  281 1 
   148  115  114 2 
   149   79   78 1 
   150  159  161 1 
   151  159  156 1 
   152  282  281 1 
   153  122  125 1 
   154  122  119 1 
   155   81   83 1 
   156   81   78 1 
   157   81   82 1 
   158  125  127 1 
   159  125  126 1 
   160   29   27 1 
   161  280  278 1 
   162   78   74 1 
   163   78   80 1 
   164   74   27 1 
   165   74   75 1 
   166  158  156 1 
   167  281  278 1 
   168  281  283 1 
   169  112  111 1 
   170   28   27 1 
   171  117  116 1 
   172   27   25 1 
   173  229  227 1 
   174  114  116 1 
   175  114  113 1 
   176  156  111 1 
   177  156  157 1 
   178  276  275 1 
   179  278  275 1 
   180  278  279 1 
   181  116  119 1 
   182  116  118 1 
   183  107  106 2 
   184  111  113 1 
   185  111  108 1 
   186  119  120 1 
   187  119  121 1 
   188  275  277 1 
   189  275  272 1 
   190  228  227 1 
   191   21   18 2 
   192  227  272 1 
   193  227  224 1 
   194   25   23 1 
   195   25   26 2 
   196   23   22 1 
   197  225  224 1 
   198  106  108 1 
   199  106   32 am
   200   19   18 1 
   201  272  273 1 
   202  272  274 1 
   203  108  109 1 
   204  108  110 1 
   205   31   30 1 
   206  224  226 1 
   207  224  222 1 
   208   18   20 1 
   209   18   17 1 
   210   16   15 1 
   211   32   30 1 
   212   32   33 1 
   213  223  222 2 
   214   22   30 1 
   215   22   15 1 
   216   22   24 1 
   217   30    9 1 
   218  222   72 am
   219   15   17 1 
   220   15    6 1 
   221   71   70 1 
   222   42   41 1 
   223   45   43 1 
   224   72   70 1 
   225   72   73 1 
   226    5    4 1 
   227   56   54 2 
   228   11    9 1 
   229   11   12 1 
   230   68   67 1 
   231    9    7 1 
   232    9   10 1 
   233   60   58 2 
   234   70   41 1 
   235   70   62 1 
   236   44   43 1 
   237   46   43 1 
   238   43   47 1 
   239   40   41 1 
   240   40   38 1 
   241   41   59 1 
   242    7    6 1 
   243   35   34 1 
   244    6    4 1 
   245    6    8 1 
   246   53   54 1 
   247   53   50 1 
   248  191  190 1 
   249  192  193 1 
   250  192  190 1 
   251    4    1 1 
   252    4    2 1 
   253   51   50 1 
   254  214  212 1 
   255  220  218 1 
   256   55   54 1 
   257   55   58 1 
   258  208  206 1 
   259   54   57 1 
   260   13   12 1 
   261   67  190 1 
   262   67   65 1 
   263   67   69 1 
   264   12   38 1 
   265   12   14 1 
   266  202  200 1 
   267  190  194 1 
   268   65   64 1 
   269   65   66 2 
   270   64   62 1 
   271   50   47 1 
   272   50   52 1 
   273   38   34 1 
   274   38   39 1 
   275   34   62 1 
   276   34   36 1 
   277   58   59 1 
   278   58   61 1 
   279   62   63 1 
   280   47   48 1 
   281   47   49 1 
   282  219  218 1 
   283  213  212 1 
   284    3    2 1 
   285  207  206 1 
   286  218  221 1 
   287  218  215 1 
   288  212  215 1 
   289  212  209 1 
   290  206  209 1 
   291  206  203 1 
   292  201  200 1 
   293  200  203 1 
   294  200  197 1 
   295   37   36 1 
   296  215  216 1 
   297  215  217 1 
   298  209  210 1 
   299  209  211 1 
   300  194  197 1 
   301  194  196 1 
   302  194  195 1 
   303  203  204 1 
   304  203  205 1 
   305  198  197 1 
   306  197  199 1 
