@<TRIPOS>MOLECULE
C:\Users\Praveer\PycharmProjects\pdb_to_mol2_converter\data\pdb\vclipc.pdb
  301   302     0     0     0
SMALL
GASTEIGER

@<TRIPOS>ATOM
      1 HB6S       -7.9580    2.3990    0.8980 H         1 VCL1        0.0000
      2 OB6        -6.7850    0.9140    1.7830 O.3       1 VCL1        0.0000
      3 HOB6       -5.9900    0.4250    1.5420 H         1 VCL1        0.0000
      4 CB6        -7.0910    1.7400    0.6530 C.3       1 VCL1        0.0000
      5 HB6R       -7.4020    1.1010   -0.2050 H         1 VCL1        0.0000
      6 CB5        -5.8900    2.5810    0.2570 C.3       1 VCL1        0.0000
      7 OB5        -4.7430    1.7290    0.0960 O.3       1 VCL1        0.0000
      8 HB5        -5.7080    3.3040    1.0890 H         1 VCL1        0.0000
      9 CB1        -3.5520    2.5010   -0.0710 C.3       1 VCL1        0.0000
     10 HB1        -3.4120    3.1770    0.8030 H         1 VCL1        0.0000
     11 OA6        -2.4220    1.6840   -0.2110 O.3       1 VCL1        0.0000
     12 CA6        -2.1590    0.8850    0.9460 C.3       1 VCL1        0.0000
     13 HA6R       -2.6120   -0.1220    0.8160 H         1 VCL1        0.0000
     14 HA6S       -2.5930    1.3480    1.8600 H         1 VCL1        0.0000
     15 CB4        -6.0550    3.3430   -1.0450 C.3       1 VCL1        0.0000
     16 HB4        -6.1690    2.5910   -1.8640 H         1 VCL1        0.0000
     17 OB4        -7.1940    4.1760   -0.8810 O.3       1 VCL1        0.0000
     18 PB         -8.4600    4.1650   -1.9460 P.3       1 VCL1        0.0000
     19 OPB4       -8.5110    5.5850   -2.4730 O.3       1 VCL1        0.0000
     20 OPB3       -9.6560    3.7550   -1.0910 O.3       1 VCL1        0.0000
     21 OPB2       -8.1170    3.1420   -3.0280 O.2       1 VCL1        0.0000
     22 CB3        -4.8410    4.1950   -1.3330 C.3       1 VCL1        0.0000
     23 OB3        -4.9690    4.8050   -2.6170 O.3       1 VCL1        0.0000
     24 HB3        -4.7150    4.9410   -0.5080 H         1 VCL1        0.0000
     25 C71        -5.4690    6.0550   -2.6430 C.2       1 VCL1        0.0000
     26 O71        -5.2210    6.8870   -1.7800 O.2       1 VCL1        0.0000
     27 C72        -5.6140    6.3940   -4.1280 C.3       1 VCL1        0.0000
     28 H72R       -6.5880    5.9530   -4.4400 H         1 VCL1        0.0000
     29 H72S       -4.8050    5.8910   -4.6920 H         1 VCL1        0.0000
     30 CB2        -3.6040    3.3280   -1.3430 C.3       1 VCL1        0.0000
     31 HB2        -3.7060    2.6120   -2.1990 H         1 VCL1        0.0000
     32 NB2        -2.3770    4.1050   -1.4980 N.am      1 VCL1        0.0000
     33 HNB2       -2.0320    4.5170   -0.6690 H         1 VCL1        0.0000
     34 CA4         0.0110    2.1410    1.1650 C.3       1 VCL1        0.0000
     35 HA4        -0.2720    2.6870    0.2340 H         1 VCL1        0.0000
     36 OA4        -0.4790    2.8800    2.2790 O.3       1 VCL1        0.0000
     37 HOA4       -0.2040    3.7990    2.1250 H         1 VCL1        0.0000
     38 CA5        -0.6550    0.7730    1.1010 C.3       1 VCL1        0.0000
     39 HA5        -0.4280    0.2050    2.0340 H         1 VCL1        0.0000
     40 OA5        -0.1650    0.0200   -0.0190 O.3       1 VCL1        0.0000
     41 CA1         1.2620   -0.1630   -0.0150 C.3       1 VCL1        0.0000
     42 HA1         1.4860   -0.6610   -0.9920 H         1 VCL1        0.0000
     43 OA1         1.6580   -0.9840    1.0720 O.3       1 VCL1        0.0000
     44 OPA2        2.8560   -2.9350    2.1310 O.3       1 VCL1        0.0000
     45 OPA3        2.5730   -2.8130   -0.4080 O.2       1 VCL1        0.0000
     46 OPA4        4.1550   -1.2230    0.7720 O.3       1 VCL1        0.0000
     47 PA          2.8900   -2.0750    0.8880 P.3       1 VCL1        0.0000
     48 CA3         1.5210    1.9990    1.1830 C.3       1 VCL1        0.0000
     49 HA3         1.7830    1.3880    2.0830 H         1 VCL1        0.0000
     50 OA3         2.3730    3.1470    1.2140 O.3       1 VCL1        0.0000
     51 C31         2.0090    4.3910    1.1000 C.2       1 VCL1        0.0000
     52 O31         0.8750    4.8390    1.1000 O.2       1 VCL1        0.0000
     53 C32         3.2790    5.2200    1.2690 C.3       1 VCL1        0.0000
     54 H32R        3.9680    4.9550    0.4400 H         1 VCL1        0.0000
     55 H32S        3.7550    4.9260    2.2280 H         1 VCL1        0.0000
     56 CA2         1.9340    1.1950   -0.0250 C.3       1 VCL1        0.0000
     57 HA2         1.5240    1.7260   -0.9230 H         1 VCL1        0.0000
     58 NA2         3.3600    1.0580   -0.2070 N.am      1 VCL1        0.0000
     59 HNA2        3.7150    0.1800    0.1910 H         1 VCL1        0.0000
     60 C73        -5.6130    7.9010   -4.4670 C.3       1 VCL1        0.0000
     61 H73R       -6.4710    8.4000   -3.9520 H         1 VCL1        0.0000
     62 O73        -5.7270    7.9230   -5.8940 O.3       1 VCL1        0.0000
     63 C81        -6.9360    8.0720   -6.4080 C.2       1 VCL1        0.0000
     64 O81        -7.8700    8.6590   -5.8800 O.2       1 VCL1        0.0000
     65 C82        -7.0590    7.3500   -7.7550 C.3       1 VCL1        0.0000
     66 H82R       -8.0140    7.6710   -8.2180 H         1 VCL1        0.0000
     67 H82S       -7.1230    6.2640   -7.5350 H         1 VCL1        0.0000
     68 C83        -5.8930    7.6180   -8.7340 C.3       1 VCL1        0.0000
     69 H83R       -6.1120    7.0640   -9.6800 H         1 VCL1        0.0000
     70 O83        -4.7040    7.1500   -8.1050 O.3       1 VCL1        0.0000
     71 CC1        -3.7920    6.5480   -8.8500 C.2       1 VCL1        0.0000
     72 OC1        -3.9600    6.2930  -10.0300 O.2       1 VCL1        0.0000
     73 CC2        -2.3350    6.6510   -8.3410 C.3       1 VCL1        0.0000
     74 HC11       -2.0420    5.6590   -8.0160 H         1 VCL1        0.0000
     75 HC12       -2.3280    7.3880   -7.5460 H         1 VCL1        0.0000
     76 NC         -1.4740    7.1340   -9.4230 N.am      1 VCL1        0.0000
     77 HNC        -1.9000    7.7980  -10.0450 H         1 VCL1        0.0000
     78 CD1        -0.2980    6.5750   -9.7030 C.2       1 VCL1        0.0000
     79 OD1         0.2030    5.7550   -8.9270 O.2       1 VCL1        0.0000
     80 CD2         0.5390    7.1650  -10.8360 C.3       1 VCL1        0.0000
     81 HD11        0.3760    8.2360  -10.8620 H         1 VCL1        0.0000
     82 HD12        0.2720    6.6610  -11.7570 H         1 VCL1        0.0000
     83 ND          1.9910    6.8950  -10.5400 N.4       1 VCL1        0.0000
     84 HND1        2.1160    5.8660  -10.4090 H         1 VCL1        0.0000
     85 HND2        2.2420    7.3380   -9.6290 H         1 VCL1        0.0000
     86 HND3        2.6240    7.2430  -11.2850 H         1 VCL1        0.0000
     87 C84        -5.7650    9.1310   -9.0560 C.3       1 VCL1        0.0000
     88 H84R       -5.7970    9.6890   -8.0950 H         1 VCL1        0.0000
     89 H84S       -6.6660    9.4260   -9.6380 H         1 VCL1        0.0000
     90 C85        -4.5130    9.6060   -9.8230 C.3       1 VCL1        0.0000
     91 H85R       -4.8190   10.0860  -10.7790 H         1 VCL1        0.0000
     92 H85S       -3.8620    8.7580  -10.1050 H         1 VCL1        0.0000
     93 C86        -3.6700   10.6060   -9.0180 C.3       1 VCL1        0.0000
     94 H86R       -3.3670   10.1270   -8.0620 H         1 VCL1        0.0000
     95 H86S       -4.2810   11.5040   -8.7730 H         1 VCL1        0.0000
     96 C87        -2.3930   10.9800   -9.7760 C.3       1 VCL1        0.0000
     97 H87R       -2.5180   10.6630  -10.8370 H         1 VCL1        0.0000
     98 H87S       -1.5490   10.4140   -9.3230 H         1 VCL1        0.0000
     99 C88        -2.0350   12.4680   -9.7840 C.3       1 VCL1        0.0000
    100 H88R       -2.8860   13.0770   -9.4400 H         1 VCL1        0.0000
    101 H88S       -1.8270   12.7850  -10.8320 H         1 VCL1        0.0000
    102 C89        -0.7700   12.7740   -8.9810 C.3       1 VCL1        0.0000
    103 H89R       -0.0650   11.9570   -9.2130 H         1 VCL1        0.0000
    104 H89S       -0.9740   12.7220   -7.8940 H         1 VCL1        0.0000
    105 C810       -0.1530   14.1160   -9.4030 C.3       1 VCL1        0.0000
    106 H810       -0.9850   14.8390   -9.4890 H         1 VCL1        0.0000
    107 H810        0.2560   14.0420  -10.4260 H         1 VCL1        0.0000
    108 C811        0.9100   14.6710   -8.4510 C.3       1 VCL1        0.0000
    109 H811        1.4910   13.8310   -8.0200 H         1 VCL1        0.0000
    110 H811        0.3620   15.1440   -7.6130 H         1 VCL1        0.0000
    111 C812        1.8630   15.6940   -9.0790 C.3       1 VCL1        0.0000
    112 H812        1.2950   16.3660   -9.7610 H         1 VCL1        0.0000
    113 H812        2.6640   15.1830   -9.6600 H         1 VCL1        0.0000
    114 H812        2.3370   16.3100   -8.2800 H         1 VCL1        0.0000
    115 C74        -4.2980    8.6450   -4.0920 C.3       1 VCL1        0.0000
    116 H74R       -3.4730    8.3010   -4.7530 H         1 VCL1        0.0000
    117 H74S       -4.0150    8.3900   -3.0510 H         1 VCL1        0.0000
    118 C75        -4.4060   10.1860   -4.1390 C.3       1 VCL1        0.0000
    119 H75R       -3.7580   10.6430   -3.3580 H         1 VCL1        0.0000
    120 H75S       -5.4560   10.4660   -3.9040 H         1 VCL1        0.0000
    121 C76        -4.0190   10.7700   -5.4980 C.3       1 VCL1        0.0000
    122 H76R       -4.2980   10.0090   -6.2570 H         1 VCL1        0.0000
    123 H76S       -2.9150   10.8970   -5.5390 H         1 VCL1        0.0000
    124 C77        -4.7290   12.0850   -5.8570 C.3       1 VCL1        0.0000
    125 H77R       -5.3640   12.4380   -5.0150 H         1 VCL1        0.0000
    126 H77S       -5.4220   11.8680   -6.7010 H         1 VCL1        0.0000
    127 C78        -3.7550   13.1880   -6.2930 C.3       1 VCL1        0.0000
    128 H78R       -2.9170   12.7290   -6.8670 H         1 VCL1        0.0000
    129 H78S       -3.3020   13.6740   -5.4050 H         1 VCL1        0.0000
    130 C79        -4.4100   14.2210   -7.2160 C.3       1 VCL1        0.0000
    131 H79R       -5.2540   14.7460   -6.7150 H         1 VCL1        0.0000
    132 H79S       -4.8120   13.6520   -8.0890 H         1 VCL1        0.0000
    133 C710       -3.3900   15.2430   -7.7300 C.3       1 VCL1        0.0000
    134 H710       -3.2970   16.1070   -7.0290 H         1 VCL1        0.0000
    135 H710       -2.3980   14.7330   -7.7440 H         1 VCL1        0.0000
    136 C711       -3.7160   15.7250   -9.1560 C.3       1 VCL1        0.0000
    137 H711       -4.7860   16.0280   -9.2320 H         1 VCL1        0.0000
    138 H711       -3.5750   14.8950   -9.8840 H         1 VCL1        0.0000
    139 C712       -2.8310   16.8800   -9.6180 C.3       1 VCL1        0.0000
    140 H712       -1.7860   16.7440   -9.2760 H         1 VCL1        0.0000
    141 H712       -3.1950   17.8420   -9.2090 H         1 VCL1        0.0000
    142 H712       -2.8150   16.9540  -10.7250 H         1 VCL1        0.0000
    143 C51        -1.6000    4.1460   -2.5950 C.2       1 VCL1        0.0000
    144 O51        -1.9440    3.7670   -3.7010 O.2       1 VCL1        0.0000
    145 C52        -0.1930    4.6430   -2.3400 C.3       1 VCL1        0.0000
    146 H52R        0.4020    3.7630   -2.0060 H         1 VCL1        0.0000
    147 H52S       -0.1930    5.3960   -1.5290 H         1 VCL1        0.0000
    148 C53         0.4780    5.2130   -3.6010 C.3       1 VCL1        0.0000
    149 H53R        0.3630    4.4730   -4.4330 H         1 VCL1        0.0000
    150 O53         1.8480    5.4060   -3.2170 O.3       1 VCL1        0.0000
    151 C61         2.7620    4.8770   -4.0270 C.2       1 VCL1        0.0000
    152 O61         2.5480    4.4210   -5.1360 O.2       1 VCL1        0.0000
    153 C62         4.1580    5.2390   -3.5240 C.3       1 VCL1        0.0000
    154 H62R        4.8920    4.7060   -4.1610 H         1 VCL1        0.0000
    155 H62S        4.2510    4.8640   -2.4870 H         1 VCL1        0.0000
    156 C63         4.4440    6.7520   -3.5060 C.3       1 VCL1        0.0000
    157 H63R        5.3950    6.9180   -2.9470 H         1 VCL1        0.0000
    158 H63S        3.6400    7.2910   -2.9590 H         1 VCL1        0.0000
    159 C64         4.6040    7.3550   -4.9020 C.3       1 VCL1        0.0000
    160 H64R        3.6830    7.1800   -5.4950 H         1 VCL1        0.0000
    161 H64S        5.4350    6.8430   -5.4350 H         1 VCL1        0.0000
    162 C65         4.8880    8.8560   -4.8130 C.3       1 VCL1        0.0000
    163 H65R        5.7840    9.0080   -4.1670 H         1 VCL1        0.0000
    164 H65S        4.0320    9.3680   -4.3180 H         1 VCL1        0.0000
    165 C66         5.1520    9.5000   -6.1750 C.3       1 VCL1        0.0000
    166 H66R        4.2870    9.3470   -6.8520 H         1 VCL1        0.0000
    167 H66S        6.0230    8.9970   -6.6460 H         1 VCL1        0.0000
    168 C67         5.4350   11.0000   -6.0470 C.3       1 VCL1        0.0000
    169 H67R        6.0780   11.1880   -5.1570 H         1 VCL1        0.0000
    170 H67S        4.4690   11.5260   -5.8760 H         1 VCL1        0.0000
    171 C68         6.1330   11.5730   -7.2840 C.3       1 VCL1        0.0000
    172 H68R        5.9240   10.9280   -8.1660 H         1 VCL1        0.0000
    173 H68S        7.2330   11.5560   -7.1150 H         1 VCL1        0.0000
    174 C69         5.7010   13.0070   -7.6070 C.3       1 VCL1        0.0000
    175 H69R        5.9110   13.6590   -6.7290 H         1 VCL1        0.0000
    176 H69S        4.6040   13.0370   -7.7890 H         1 VCL1        0.0000
    177 C610        6.4310   13.5540   -8.8390 C.3       1 VCL1        0.0000
    178 H610        6.1250   12.9710   -9.7360 H         1 VCL1        0.0000
    179 H610        7.5280   13.4140   -8.7010 H         1 VCL1        0.0000
    180 C611        6.1530   15.0420   -9.0680 C.3       1 VCL1        0.0000
    181 H611        6.5610   15.6150   -8.2060 H         1 VCL1        0.0000
    182 H611        5.0540   15.2160   -9.1000 H         1 VCL1        0.0000
    183 C612        6.7780   15.5700  -10.3650 C.3       1 VCL1        0.0000
    184 H612        6.2420   15.1290  -11.2340 H         1 VCL1        0.0000
    185 H612        7.8420   15.2460  -10.4240 H         1 VCL1        0.0000
    186 C613        6.7250   17.1010  -10.4480 C.3       1 VCL1        0.0000
    187 H613        7.3720   17.5200   -9.6430 H         1 VCL1        0.0000
    188 H613        5.6820   17.4350  -10.2440 H         1 VCL1        0.0000
    189 C614        7.1740   17.6570  -11.8000 C.3       1 VCL1        0.0000
    190 H614        6.4890   17.3150  -12.6060 H         1 VCL1        0.0000
    191 H614        8.2030   17.3130  -12.0430 H         1 VCL1        0.0000
    192 H614        7.1690   18.7690  -11.7840 H         1 VCL1        0.0000
    193 C54        -0.0970    6.5750   -4.0830 C.3       1 VCL1        0.0000
    194 H54R       -0.2160    7.2600   -3.2180 H         1 VCL1        0.0000
    195 H54S       -1.1000    6.3940   -4.5270 H         1 VCL1        0.0000
    196 C55         0.8320    7.2160   -5.1280 C.3       1 VCL1        0.0000
    197 H55R        1.1000    6.4140   -5.8570 H         1 VCL1        0.0000
    198 H55S        1.7660    7.5250   -4.6060 H         1 VCL1        0.0000
    199 C56         0.3310    8.4170   -5.9370 C.3       1 VCL1        0.0000
    200 H56R        0.2510    9.3180   -5.3020 H         1 VCL1        0.0000
    201 H56S       -0.6780    8.2080   -6.3520 H         1 VCL1        0.0000
    202 C57         1.3260    8.6410   -7.0820 C.3       1 VCL1        0.0000
    203 H57R        0.9990    7.9890   -7.9130 H         1 VCL1        0.0000
    204 H57S        2.3310    8.2840   -6.7650 H         1 VCL1        0.0000
    205 C58         1.5130   10.0670   -7.5870 C.3       1 VCL1        0.0000
    206 H58R        2.3350   10.5520   -7.0080 H         1 VCL1        0.0000
    207 H58S        0.6000   10.6830   -7.4350 H         1 VCL1        0.0000
    208 C59         1.8730   10.0200   -9.0730 C.3       1 VCL1        0.0000
    209 H59R        0.9230    9.9070   -9.6460 H         1 VCL1        0.0000
    210 H59S        2.5420    9.1550   -9.2710 H         1 VCL1        0.0000
    211 C510        2.5950   11.2750   -9.5320 C.3       1 VCL1        0.0000
    212 H510        3.5510   11.4250   -8.9820 H         1 VCL1        0.0000
    213 H510        1.9550   12.1360   -9.2450 H         1 VCL1        0.0000
    214 C511        2.8120   11.3150  -11.0480 C.3       1 VCL1        0.0000
    215 H511        2.2370   10.5140  -11.5660 H         1 VCL1        0.0000
    216 H511        3.8950   11.1650  -11.2570 H         1 VCL1        0.0000
    217 C512        2.3530   12.6760  -11.5730 C.3       1 VCL1        0.0000
    218 H512        2.5990   13.4330  -10.7970 H         1 VCL1        0.0000
    219 H512        1.2470   12.6720  -11.6860 H         1 VCL1        0.0000
    220 C513        3.0230   13.1410  -12.8620 C.3       1 VCL1        0.0000
    221 H513        2.7830   12.4170  -13.6740 H         1 VCL1        0.0000
    222 H513        4.1290   13.1420  -12.7010 H         1 VCL1        0.0000
    223 C514        2.5820   14.5560  -13.2530 C.3       1 VCL1        0.0000
    224 H514        2.6870   15.2450  -12.3820 H         1 VCL1        0.0000
    225 H514        1.5160   14.5590  -13.5800 H         1 VCL1        0.0000
    226 H514        3.2210   14.9390  -14.0790 H         1 VCL1        0.0000
    227 C33         3.0170    6.7350    1.2710 C.3       1 VCL1        0.0000
    228 H33R        3.9840    7.2480    1.4930 H         1 VCL1        0.0000
    229 O33         2.1150    7.0650    2.3100 O.3       1 VCL1        0.0000
    230 HO33        1.2370    6.6820    2.1880 H         1 VCL1        0.0000
    231 C34         2.4980    7.2810   -0.0710 C.3       1 VCL1        0.0000
    232 H34R        1.5070    6.8390   -0.3110 H         1 VCL1        0.0000
    233 H34S        3.2080    6.9540   -0.8600 H         1 VCL1        0.0000
    234 C35         2.3750    8.8150   -0.1180 C.3       1 VCL1        0.0000
    235 H35R        3.3120    9.2830    0.2560 H         1 VCL1        0.0000
    236 H35S        1.5560    9.1230    0.5710 H         1 VCL1        0.0000
    237 C36         2.0830    9.3280   -1.5340 C.3       1 VCL1        0.0000
    238 H36R        1.7600    8.4700   -2.1680 H         1 VCL1        0.0000
    239 H36S        3.0150    9.7410   -1.9790 H         1 VCL1        0.0000
    240 C37         0.9730   10.3860   -1.5860 C.3       1 VCL1        0.0000
    241 H37R        1.2440   11.2550   -0.9490 H         1 VCL1        0.0000
    242 H37S        0.0450    9.9390   -1.1600 H         1 VCL1        0.0000
    243 C38         0.6860   10.8370   -3.0270 C.3       1 VCL1        0.0000
    244 H38R       -0.4040   10.7170   -3.2240 H         1 VCL1        0.0000
    245 H38S        1.2260   10.1560   -3.7190 H         1 VCL1        0.0000
    246 C39         1.0990   12.2820   -3.3460 C.3       1 VCL1        0.0000
    247 H39R        2.0280   12.2770   -3.9590 H         1 VCL1        0.0000
    248 H39S        1.3290   12.8220   -2.4000 H         1 VCL1        0.0000
    249 C310       -0.0020   13.0550   -4.0860 C.3       1 VCL1        0.0000
    250 H310       -0.9330   13.0250   -3.4740 H         1 VCL1        0.0000
    251 H310       -0.2210   12.5600   -5.0590 H         1 VCL1        0.0000
    252 C311        0.3620   14.5230   -4.3350 C.3       1 VCL1        0.0000
    253 H311        1.2890   14.5710   -4.9520 H         1 VCL1        0.0000
    254 H311        0.5810   15.0150   -3.3590 H         1 VCL1        0.0000
    255 C312       -0.7530   15.2960   -5.0400 C.3       1 VCL1        0.0000
    256 H312       -1.6890   15.2610   -4.4450 H         1 VCL1        0.0000
    257 H312       -0.9690   14.8420   -6.0280 H         1 VCL1        0.0000
    258 H312       -0.4740   16.3610   -5.1900 H         1 VCL1        0.0000
    259 C11         4.0630    1.6670   -1.1510 C.2       1 VCL1        0.0000
    260 O11         3.8190    2.8180   -1.5110 O.2       1 VCL1        0.0000
    261 C12         5.0890    0.7980   -1.8490 C.3       1 VCL1        0.0000
    262 H12R        4.5090   -0.0100   -2.3480 H         1 VCL1        0.0000
    263 H12S        5.7330    0.3090   -1.0900 H         1 VCL1        0.0000
    264 C13         5.9250    1.5890   -2.8700 C.3       1 VCL1        0.0000
    265 H13R        5.3290    2.4060   -3.3370 H         1 VCL1        0.0000
    266 O13         6.3080    0.6960   -3.9030 O.3       1 VCL1        0.0000
    267 HO13        5.5690    0.2630   -4.3410 H         1 VCL1        0.0000
    268 C14         7.1970    2.1750   -2.2210 C.3       1 VCL1        0.0000
    269 H14R        7.7190    1.3350   -1.7090 H         1 VCL1        0.0000
    270 H14S        6.8870    2.9020   -1.4400 H         1 VCL1        0.0000
    271 C15         8.2090    2.8460   -3.1730 C.3       1 VCL1        0.0000
    272 H15R        8.5740    2.0980   -3.9130 H         1 VCL1        0.0000
    273 H15S        9.0840    3.1650   -2.5620 H         1 VCL1        0.0000
    274 C16         7.6660    4.0730   -3.9180 C.3       1 VCL1        0.0000
    275 H16R        7.0450    4.6700   -3.2130 H         1 VCL1        0.0000
    276 H16S        7.0040    3.7260   -4.7430 H         1 VCL1        0.0000
    277 C17         8.7860    4.9720   -4.4740 C.3       1 VCL1        0.0000
    278 H17R        9.4740    4.3660   -5.1050 H         1 VCL1        0.0000
    279 H17S        9.3760    5.3680   -3.6160 H         1 VCL1        0.0000
    280 C18         8.2510    6.1550   -5.2950 C.3       1 VCL1        0.0000
    281 H18R        7.5030    6.6890   -4.6670 H         1 VCL1        0.0000
    282 H18S        7.7260    5.7650   -6.1940 H         1 VCL1        0.0000
    283 C19         9.3280    7.1690   -5.7270 C.3       1 VCL1        0.0000
    284 H19R       10.0580    6.6880   -6.4130 H         1 VCL1        0.0000
    285 H19S        9.8800    7.5080   -4.8220 H         1 VCL1        0.0000
    286 C110        8.7030    8.3990   -6.4030 C.3       1 VCL1        0.0000
    287 H110        7.9130    8.7680   -5.7080 H         1 VCL1        0.0000
    288 H110        8.2060    8.1060   -7.3530 H         1 VCL1        0.0000
    289 C111        9.6590    9.5800   -6.6490 C.3       1 VCL1        0.0000
    290 H111       10.3400    9.7190   -5.7820 H         1 VCL1        0.0000
    291 H111        9.0280   10.4960   -6.7120 H         1 VCL1        0.0000
    292 C112       10.4610    9.5100   -7.9590 C.3       1 VCL1        0.0000
    293 H112        9.8350    9.0400   -8.7500 H         1 VCL1        0.0000
    294 H112       11.3600    8.8710   -7.8140 H         1 VCL1        0.0000
    295 C113       10.8770   10.9080   -8.4480 C.3       1 VCL1        0.0000
    296 H113       11.4800   11.4050   -7.6550 H         1 VCL1        0.0000
    297 H113        9.9550   11.5180   -8.5920 H         1 VCL1        0.0000
    298 C114       11.6710   10.9100   -9.7580 C.3       1 VCL1        0.0000
    299 H114       11.1010   10.4000  -10.5630 H         1 VCL1        0.0000
    300 H114       12.6430   10.3880   -9.6270 H         1 VCL1        0.0000
    301 H114       11.8770   11.9530  -10.0850 H         1 VCL1        0.0000
@<TRIPOS>BOND
     1  226  223 1 
     2  221  220 1 
     3  225  223 1 
     4  223  220 1 
     5  223  224 1 
     6  220  222 1 
     7  220  217 1 
     8  190  189 1 
     9  191  189 1 
    10  189  192 1 
    11  189  186 1 
    12   82   80 1 
    13  219  217 1 
    14  217  214 1 
    15  217  218 1 
    16  215  214 1 
    17   86   83 1 
    18  216  214 1 
    19  184  183 1 
    20  214  211 1 
    21   81   80 1 
    22   97   96 1 
    23   80   83 1 
    24   80   78 1 
    25  101   99 1 
    26   91   90 1 
    27  142  139 1 
    28  299  298 1 
    29   83   84 1 
    30   83   85 1 
    31  186  183 1 
    32  186  188 1 
    33  186  187 1 
    34  107  105 1 
    35  185  183 1 
    36  183  180 1 
    37   92   90 1 
    38  301  298 1 
    39   77   76 1 
    40   72   71 2 
    41  138  136 1 
    42   90   87 1 
    43   90   93 1 
    44   99   96 1 
    45   99  100 1 
    46   99  102 1 
    47   96   98 1 
    48   96   93 1 
    49  112  111 1 
    50  298  300 1 
    51  298  295 1 
    52  178  177 1 
    53   78   76 am
    54   78   79 2 
    55   69   68 1 
    56  113  111 1 
    57  209  208 1 
    58   89   87 1 
    59  139  140 1 
    60  139  141 1 
    61  139  136 1 
    62  211  213 1 
    63  211  208 1 
    64  211  212 1 
    65  106  105 1 
    66   76   73 1 
    67  105  102 1 
    68  105  108 1 
    69  210  208 1 
    70  137  136 1 
    71  103  102 1 
    72  136  133 1 
    73  182  180 1 
    74  111  108 1 
    75  111  114 1 
    76  208  205 1 
    77  180  177 1 
    78  180  181 1 
    79   87   68 1 
    80   87   88 1 
    81   93   95 1 
    82   93   94 1 
    83  102  104 1 
    84   71   73 1 
    85   71   70 1 
    86  177  179 1 
    87  177  174 1 
    88  293  292 1 
    89   68   70 1 
    90   68   65 1 
    91  297  295 1 
    92  108  109 1 
    93  108  110 1 
    94  295  292 1 
    95  295  296 1 
    96   73   74 1 
    97   73   75 1 
    98   66   65 1 
    99  172  171 1 
   100  132  130 1 
   101  292  294 1 
   102  292  289 1 
   103  203  202 1 
   104  176  174 1 
   105   65   67 1 
   106   65   63 1 
   107  135  133 1 
   108  133  130 1 
   109  133  134 1 
   110  174  171 1 
   111  174  175 1 
   112  205  207 1 
   113  205  202 1 
   114  205  206 1 
   115  288  286 1 
   116  171  173 1 
   117  171  168 1 
   118  130  131 1 
   119  130  127 1 
   120  202  204 1 
   121  202  199 1 
   122  128  127 1 
   123  166  165 1 
   124  291  289 1 
   125  126  124 1 
   126  289  286 1 
   127  289  290 1 
   128  167  165 1 
   129  284  283 1 
   130   63   62 1 
   131   63   64 2 
   132  286  283 1 
   133  286  287 1 
   134  201  199 1 
   135  127  124 1 
   136  127  129 1 
   137  122  121 1 
   138  282  280 1 
   139  165  168 1 
   140  165  162 1 
   141  168  170 1 
   142  168  169 1 
   143  257  255 1 
   144  199  200 1 
   145  199  196 1 
   146   62   60 1 
   147  124  121 1 
   148  124  125 1 
   149  197  196 1 
   150  283  280 1 
   151  283  285 1 
   152  123  121 1 
   153  121  118 1 
   154  160  159 1 
   155  161  159 1 
   156  280  281 1 
   157  280  277 1 
   158  258  255 1 
   159  152  151 2 
   160  196  198 1 
   161  196  193 1 
   162  278  277 1 
   163  251  249 1 
   164  255  256 1 
   165  255  252 1 
   166  253  252 1 
   167  159  162 1 
   168  159  156 1 
   169  162  164 1 
   170  162  163 1 
   171  116  115 1 
   172  276  274 1 
   173   29   27 1 
   174  195  193 1 
   175  277  274 1 
   176  277  279 1 
   177   60   27 1 
   178   60  115 1 
   179   60   61 1 
   180   28   27 1 
   181  149  148 1 
   182  267  266 1 
   183  252  249 1 
   184  252  254 1 
   185  154  153 1 
   186  118  115 1 
   187  118  120 1 
   188  118  119 1 
   189   27   25 1 
   190  115  117 1 
   191  249  250 1 
   192  249  246 1 
   193  193  148 1 
   194  193  194 1 
   195  151  153 1 
   196  151  150 1 
   197  247  246 1 
   198  274  275 1 
   199  274  271 1 
   200  272  271 1 
   201  266  264 1 
   202  245  243 1 
   203  144  143 2 
   204  148  150 1 
   205  148  145 1 
   206  153  156 1 
   207  153  155 1 
   208  156  158 1 
   209  156  157 1 
   210  246  243 1 
   211  246  248 1 
   212  265  264 1 
   213  244  243 1 
   214  271  273 1 
   215  271  268 1 
   216   21   18 2 
   217  243  240 1 
   218  264  268 1 
   219  264  261 1 
   220   25   23 1 
   221   25   26 2 
   222   23   22 1 
   223  143  145 1 
   224  143   32 am
   225   19   18 1 
   226  262  261 1 
   227  145  146 1 
   228  145  147 1 
   229  268  269 1 
   230  268  270 1 
   231   31   30 1 
   232  238  237 1 
   233  239  237 1 
   234   18   20 1 
   235   18   17 1 
   236   16   15 1 
   237  261  259 1 
   238  261  263 1 
   239  240  237 1 
   240  240  242 1 
   241  240  241 1 
   242  237  234 1 
   243  260  259 2 
   244   32   30 1 
   245   32   33 1 
   246   30   22 1 
   247   30    9 1 
   248   22   15 1 
   249   22   24 1 
   250  259   58 am
   251   15   17 1 
   252   15    6 1 
   253   42   41 1 
   254   57   56 1 
   255  233  231 1 
   256   45   47 2 
   257  232  231 1 
   258   11    9 1 
   259   11   12 1 
   260   58   56 1 
   261   58   59 1 
   262    5    4 1 
   263  234  231 1 
   264  234  235 1 
   265  234  236 1 
   266    9    7 1 
   267    9   10 1 
   268  231  227 1 
   269   56   41 1 
   270   56   48 1 
   271   40   41 1 
   272   40   38 1 
   273   41   43 1 
   274    7    6 1 
   275   35   34 1 
   276    6    4 1 
   277    6    8 1 
   278   54   53 1 
   279    4    1 1 
   280    4    2 1 
   281   46   47 1 
   282   13   12 1 
   283   47   43 1 
   284   47   44 1 
   285   12   38 1 
   286   12   14 1 
   287   51   52 2 
   288   51   50 1 
   289   51   53 1 
   290   38   34 1 
   291   38   39 1 
   292   34   48 1 
   293   34   36 1 
   294   48   50 1 
   295   48   49 1 
   296   53  227 1 
   297   53   55 1 
   298  227  228 1 
   299  227  229 1 
   300    3    2 1 
   301   37   36 1 
   302  230  229 1 
