@<TRIPOS>MOLECULE
C:\Users\Praveer\PycharmProjects\pdb_to_mol2_converter\data\pdb\vclipe.pdb
  387   388     0     0     0
SMALL
GASTEIGER

@<TRIPOS>ATOM
      1 HB6S       -7.9360    2.1800    0.8670 H         1 VCL1        0.0000
      2 OB6        -6.7400    0.7110    1.7540 O.3       1 VCL1        0.0000
      3 HOB6       -5.9010    0.2900    1.5430 H         1 VCL1        0.0000
      4 CB6        -7.0240    1.5770    0.6480 C.3       1 VCL1        0.0000
      5 HB6R       -7.2380    0.9670   -0.2600 H         1 VCL1        0.0000
      6 CB5        -5.8480    2.4880    0.3650 C.3       1 VCL1        0.0000
      7 OB5        -4.6730    1.6740    0.2200 O.3       1 VCL1        0.0000
      8 HB5        -5.7240    3.1770    1.2350 H         1 VCL1        0.0000
      9 CB1        -3.5010    2.4760    0.0740 C.3       1 VCL1        0.0000
     10 HB1        -3.3710    3.1420    0.9560 H         1 VCL1        0.0000
     11 OA6        -2.3650    1.6830   -0.0960 O.3       1 VCL1        0.0000
     12 CA6        -2.0960    0.8700    1.0390 C.3       1 VCL1        0.0000
     13 HA6R       -2.5390   -0.1420    0.8920 H         1 VCL1        0.0000
     14 HA6S       -2.5160    1.3150    1.9660 H         1 VCL1        0.0000
     15 CB4        -6.0060    3.2930   -0.9080 C.3       1 VCL1        0.0000
     16 HB4        -6.1020    2.5630   -1.7520 H         1 VCL1        0.0000
     17 OB4        -7.1640    4.0980   -0.7370 O.3       1 VCL1        0.0000
     18 PB         -8.3940    4.1370   -1.8450 P.3       1 VCL1        0.0000
     19 OPB4       -8.4120    5.5830   -2.3250 O.3       1 VCL1        0.0000
     20 OPB3       -9.6270    3.7190   -1.0580 O.3       1 VCL1        0.0000
     21 OPB2       -8.0180    3.1610   -2.9530 O.2       1 VCL1        0.0000
     22 CB3        -4.7930    4.1530   -1.1640 C.3       1 VCL1        0.0000
     23 OB3        -4.8970    4.7360   -2.4520 O.3       1 VCL1        0.0000
     24 HB3        -4.6780    4.9110   -0.3500 H         1 VCL1        0.0000
     25 C71        -5.4840    5.9350   -2.5200 C.2       1 VCL1        0.0000
     26 O71        -5.2610    6.8330   -1.7180 O.2       1 VCL1        0.0000
     27 C72        -5.6980    6.1530   -4.0090 C.3       1 VCL1        0.0000
     28 H72R       -6.7010    5.7260   -4.2370 H         1 VCL1        0.0000
     29 H72S       -4.9400    5.5920   -4.5910 H         1 VCL1        0.0000
     30 CB2        -3.5600    3.2950   -1.1880 C.3       1 VCL1        0.0000
     31 HB2        -3.6810    2.5700   -2.0350 H         1 VCL1        0.0000
     32 NB2        -2.3370    4.0700   -1.3770 N.am      1 VCL1        0.0000
     33 HNB2       -2.0230    4.5870   -0.5920 H         1 VCL1        0.0000
     34 CA4         0.0990    2.1400    1.1930 C.3       1 VCL1        0.0000
     35 HA4        -0.2040    2.7020    0.2780 H         1 VCL1        0.0000
     36 OA4        -0.3270    2.8740    2.3360 O.3       1 VCL1        0.0000
     37 HOA4       -0.1050    3.8070    2.1540 H         1 VCL1        0.0000
     38 CA5        -0.6000    0.7810    1.1580 C.3       1 VCL1        0.0000
     39 HA5        -0.3630    0.2300    2.0970 H         1 VCL1        0.0000
     40 OA5        -0.1650    0.0210    0.0250 O.3       1 VCL1        0.0000
     41 CA1         1.2330   -0.2500    0.0600 C.3       1 VCL1        0.0000
     42 HA1         1.4680   -0.8380   -0.8630 H         1 VCL1        0.0000
     43 NC          2.6290   -5.7370    0.0550 N.4       1 VCL1        0.0000
     44 HNC1        1.7850   -6.3270    0.0400 H         1 VCL1        0.0000
     45 HNC2        3.2150   -5.8580   -0.7980 H         1 VCL1        0.0000
     46 HNC3        2.3330   -4.7080    0.0620 H         1 VCL1        0.0000
     47 CC2         3.4720   -5.9340    1.2800 C.3       1 VCL1        0.0000
     48 HC21        3.5470   -7.0040    1.5400 H         1 VCL1        0.0000
     49 HC22        2.9710   -5.4230    2.1200 H         1 VCL1        0.0000
     50 CC1         4.8840   -5.3460    1.0640 C.3       1 VCL1        0.0000
     51 HC11        5.5200   -6.1160    0.5790 H         1 VCL1        0.0000
     52 HC12        5.3460   -5.1870    2.0650 H         1 VCL1        0.0000
     53 OC2         4.8990   -4.1810    0.2310 O.3       1 VCL1        0.0000
     54 PC          5.2360   -2.6790    0.8310 P.3       1 VCL1        0.0000
     55 OC1         3.8100   -1.9250    0.7970 O.3       1 VCL1        0.0000
     56 OPC3        6.1210   -1.9410   -0.1640 O.2       1 VCL1        0.0000
     57 OPC4        5.7410   -2.8190    2.2600 O.3       1 VCL1        0.0000
     58 PA          2.3190   -2.3680    1.1960 P.3       1 VCL1        0.0000
     59 OA1         1.5630   -0.9270    1.2530 O.3       1 VCL1        0.0000
     60 OPA3        1.7830   -3.2360    0.0590 O.2       1 VCL1        0.0000
     61 OPA4        2.3280   -3.0230    2.5550 O.3       1 VCL1        0.0000
     62 CA3         1.6140    1.9760    1.1400 C.3       1 VCL1        0.0000
     63 HA3         1.9020    1.4310    2.0740 H         1 VCL1        0.0000
     64 OA3         2.4630    3.1300    1.0520 O.3       1 VCL1        0.0000
     65 C31         2.1050    4.3930    1.0600 C.2       1 VCL1        0.0000
     66 O31         0.9820    4.8490    1.1650 O.2       1 VCL1        0.0000
     67 C32         3.3430    5.2350    0.8000 C.3       1 VCL1        0.0000
     68 H32R        3.6280    5.0670   -0.2590 H         1 VCL1        0.0000
     69 H32S        4.1760    4.8880    1.4430 H         1 VCL1        0.0000
     70 CA2         1.9740    1.0610   -0.0260 C.3       1 VCL1        0.0000
     71 HA2         1.5550    1.5590   -0.9390 H         1 VCL1        0.0000
     72 NA2         3.3880    0.8220   -0.2810 N.am      1 VCL1        0.0000
     73 HNA2        3.7280   -0.0660    0.0400 H         1 VCL1        0.0000
     74 C73        -5.6640    7.6280   -4.4090 C.3       1 VCL1        0.0000
     75 H73R       -6.4260    8.1850   -3.8070 H         1 VCL1        0.0000
     76 O73        -5.9330    7.6060   -5.8140 O.3       1 VCL1        0.0000
     77 C81        -7.1010    8.0830   -6.1950 C.2       1 VCL1        0.0000
     78 O81        -7.8070    8.8470   -5.5680 O.2       1 VCL1        0.0000
     79 C82        -7.3330    7.7750   -7.6860 C.3       1 VCL1        0.0000
     80 H82R       -7.8580    8.6630   -8.0930 H         1 VCL1        0.0000
     81 H82S       -8.0300    6.9140   -7.7320 H         1 VCL1        0.0000
     82 C83        -6.0730    7.4880   -8.5470 C.3       1 VCL1        0.0000
     83 H83R       -5.9750    6.3900   -8.7010 H         1 VCL1        0.0000
     84 H83S       -5.1520    7.8390   -8.0280 H         1 VCL1        0.0000
     85 C84        -6.1310    8.2150   -9.8990 C.3       1 VCL1        0.0000
     86 H84R       -6.2930    9.2980   -9.6940 H         1 VCL1        0.0000
     87 H84S       -7.0020    7.8570  -10.4900 H         1 VCL1        0.0000
     88 C85        -4.8470    8.0730  -10.7310 C.3       1 VCL1        0.0000
     89 H85R       -4.9780    7.2670  -11.4850 H         1 VCL1        0.0000
     90 H85S       -4.0100    7.7700  -10.0640 H         1 VCL1        0.0000
     91 C86        -4.4580    9.3850  -11.4270 C.3       1 VCL1        0.0000
     92 H86R       -4.3130   10.1670  -10.6450 H         1 VCL1        0.0000
     93 H86S       -5.2930    9.7120  -12.0860 H         1 VCL1        0.0000
     94 C87        -3.1660    9.2780  -12.2510 C.3       1 VCL1        0.0000
     95 H87R       -3.2530    8.4500  -12.9890 H         1 VCL1        0.0000
     96 H87S       -2.3280    9.0320  -11.5600 H         1 VCL1        0.0000
     97 C88        -2.8440   10.5870  -12.9860 C.3       1 VCL1        0.0000
     98 H88R       -3.1100   11.4370  -12.3150 H         1 VCL1        0.0000
     99 H88S       -3.4820   10.6700  -13.8930 H         1 VCL1        0.0000
    100 C89        -1.3640   10.7490  -13.3650 C.3       1 VCL1        0.0000
    101 H89R       -0.7360   10.6420  -12.4520 H         1 VCL1        0.0000
    102 H89S       -1.2230   11.7860  -13.7490 H         1 VCL1        0.0000
    103 C810       -0.8690    9.7760  -14.4460 C.3       1 VCL1        0.0000
    104 H810       -1.5230    9.8820  -15.3410 H         1 VCL1        0.0000
    105 H810       -0.9510    8.7260  -14.0900 H         1 VCL1        0.0000
    106 C811        0.5830   10.0690  -14.8540 C.3       1 VCL1        0.0000
    107 H811        1.2680    9.6380  -14.0890 H         1 VCL1        0.0000
    108 H811        0.7360   11.1720  -14.8460 H         1 VCL1        0.0000
    109 C812        0.9580    9.5460  -16.2440 C.3       1 VCL1        0.0000
    110 H812        0.3210   10.0260  -17.0190 H         1 VCL1        0.0000
    111 H812        0.8190    8.4460  -16.3050 H         1 VCL1        0.0000
    112 H812        2.0200    9.7820  -16.4730 H         1 VCL1        0.0000
    113 C74        -4.2840    8.3020   -4.2170 C.3       1 VCL1        0.0000
    114 H74R       -3.5140    7.7260   -4.7740 H         1 VCL1        0.0000
    115 H74S       -4.0230    8.2640   -3.1380 H         1 VCL1        0.0000
    116 C75        -4.2690    9.7820   -4.6490 C.3       1 VCL1        0.0000
    117 H75R       -3.7900   10.4020   -3.8590 H         1 VCL1        0.0000
    118 H75S       -5.3250   10.1250   -4.7400 H         1 VCL1        0.0000
    119 C76        -3.5350   10.0330   -5.9730 C.3       1 VCL1        0.0000
    120 H76R       -3.6730    9.1600   -6.6480 H         1 VCL1        0.0000
    121 H76S       -2.4470   10.1150   -5.7600 H         1 VCL1        0.0000
    122 C77        -4.0220   11.2970   -6.6950 C.3       1 VCL1        0.0000
    123 H77R       -4.5870   11.9360   -5.9790 H         1 VCL1        0.0000
    124 H77S       -4.7280   10.9910   -7.5010 H         1 VCL1        0.0000
    125 C78        -2.8830   12.1320   -7.2940 C.3       1 VCL1        0.0000
    126 H78R       -2.2040   11.4630   -7.8670 H         1 VCL1        0.0000
    127 H78S       -2.2950   12.5910   -6.4670 H         1 VCL1        0.0000
    128 C79        -3.3950   13.2280   -8.2360 C.3       1 VCL1        0.0000
    129 H79R       -4.0990   13.8920   -7.6870 H         1 VCL1        0.0000
    130 H79S       -3.9610   12.7420   -9.0620 H         1 VCL1        0.0000
    131 C710       -2.2670   14.0760   -8.8370 C.3       1 VCL1        0.0000
    132 H710       -1.4900   13.4010   -9.2560 H         1 VCL1        0.0000
    133 H710       -1.7990   14.6830   -8.0300 H         1 VCL1        0.0000
    134 C711       -2.7520   14.9920   -9.9670 C.3       1 VCL1        0.0000
    135 H711       -3.7210   15.4520   -9.6700 H         1 VCL1        0.0000
    136 H711       -2.9420   14.3630  -10.8660 H         1 VCL1        0.0000
    137 C712       -1.7650   16.1080  -10.3210 C.3       1 VCL1        0.0000
    138 H712       -0.7490   15.7000  -10.4940 H         1 VCL1        0.0000
    139 H712       -1.7060   16.8460   -9.4930 H         1 VCL1        0.0000
    140 H712       -2.0910   16.6360  -11.2430 H         1 VCL1        0.0000
    141 C51        -1.5410    3.9850   -2.4540 C.2       1 VCL1        0.0000
    142 O51        -1.8760    3.4640   -3.5090 O.2       1 VCL1        0.0000
    143 C52        -0.1420    4.5170   -2.2680 C.3       1 VCL1        0.0000
    144 H52R        0.4860    3.6760   -1.8990 H         1 VCL1        0.0000
    145 H52S       -0.1360    5.3250   -1.5110 H         1 VCL1        0.0000
    146 C53         0.4450    5.0320   -3.5920 C.3       1 VCL1        0.0000
    147 H53R        0.2910    4.2590   -4.3860 H         1 VCL1        0.0000
    148 O53         1.8360    5.2450   -3.3160 O.3       1 VCL1        0.0000
    149 C61         2.6740    4.9040   -4.2950 C.2       1 VCL1        0.0000
    150 O61         2.3520    4.5630   -5.4170 O.2       1 VCL1        0.0000
    151 C62         4.1060    5.2180   -3.8630 C.3       1 VCL1        0.0000
    152 H62R        4.7900    4.7330   -4.5860 H         1 VCL1        0.0000
    153 H62S        4.2580    4.7560   -2.8650 H         1 VCL1        0.0000
    154 C63         4.4020    6.7300   -3.7740 C.3       1 VCL1        0.0000
    155 H63R        5.3850    6.8580   -3.2660 H         1 VCL1        0.0000
    156 H63S        3.6340    7.2250   -3.1400 H         1 VCL1        0.0000
    157 C64         4.4800    7.4450   -5.1300 C.3       1 VCL1        0.0000
    158 H64R        3.5680    7.2330   -5.7290 H         1 VCL1        0.0000
    159 H64S        5.3510    7.0510   -5.6990 H         1 VCL1        0.0000
    160 C65         4.6200    8.9630   -4.9480 C.3       1 VCL1        0.0000
    161 H65R        5.4580    9.1480   -4.2380 H         1 VCL1        0.0000
    162 H65S        3.6890    9.3710   -4.4920 H         1 VCL1        0.0000
    163 C66         4.9280    9.7190   -6.2460 C.3       1 VCL1        0.0000
    164 H66R        4.0820    9.6270   -6.9610 H         1 VCL1        0.0000
    165 H66S        5.8200    9.2440   -6.7120 H         1 VCL1        0.0000
    166 C67         5.2360   11.2020   -5.9820 C.3       1 VCL1        0.0000
    167 H67R        5.8780   11.2600   -5.0740 H         1 VCL1        0.0000
    168 H67S        4.2970   11.7490   -5.7480 H         1 VCL1        0.0000
    169 C68         5.9890   11.8870   -7.1320 C.3       1 VCL1        0.0000
    170 H68R        6.3510   11.1200   -7.8520 H         1 VCL1        0.0000
    171 H68S        6.8850   12.4010   -6.7140 H         1 VCL1        0.0000
    172 C69         5.1590   12.9370   -7.8810 C.3       1 VCL1        0.0000
    173 H69R        4.9030   13.7560   -7.1720 H         1 VCL1        0.0000
    174 H69S        4.2070   12.4790   -8.2230 H         1 VCL1        0.0000
    175 C610        5.9050   13.5190   -9.0900 C.3       1 VCL1        0.0000
    176 H610        5.5040   13.0640  -10.0220 H         1 VCL1        0.0000
    177 H610        6.9810   13.2400   -9.0220 H         1 VCL1        0.0000
    178 C611        5.8210   15.0490   -9.1810 C.3       1 VCL1        0.0000
    179 H611        6.2590   15.4900   -8.2570 H         1 VCL1        0.0000
    180 H611        4.7530   15.3570   -9.2360 H         1 VCL1        0.0000
    181 C612        6.5670   15.5950  -10.4060 C.3       1 VCL1        0.0000
    182 H612        6.0780   15.2100  -11.3290 H         1 VCL1        0.0000
    183 H612        7.6120   15.2150  -10.3960 H         1 VCL1        0.0000
    184 C613        6.6050   17.1270  -10.4570 C.3       1 VCL1        0.0000
    185 H613        7.2000   17.5030   -9.5930 H         1 VCL1        0.0000
    186 H613        5.5690   17.5170  -10.3420 H         1 VCL1        0.0000
    187 C614        7.2050   17.6680  -11.7580 C.3       1 VCL1        0.0000
    188 H614        6.5800   17.3600  -12.6240 H         1 VCL1        0.0000
    189 H614        8.2320   17.2710  -11.9080 H         1 VCL1        0.0000
    190 H614        7.2540   18.7780  -11.7360 H         1 VCL1        0.0000
    191 C54        -0.2160    6.3630   -4.0400 C.3       1 VCL1        0.0000
    192 H54R       -0.2340    7.0600   -3.1750 H         1 VCL1        0.0000
    193 H54S       -1.2680    6.1510   -4.3360 H         1 VCL1        0.0000
    194 C55         0.5080    7.0430   -5.2120 C.3       1 VCL1        0.0000
    195 H55R        0.5480    6.3270   -6.0660 H         1 VCL1        0.0000
    196 H55S        1.5520    7.2680   -4.8990 H         1 VCL1        0.0000
    197 C56        -0.0970    8.3610   -5.6960 C.3       1 VCL1        0.0000
    198 H56R        0.0570    9.1360   -4.9110 H         1 VCL1        0.0000
    199 H56S       -1.1900    8.2350   -5.8610 H         1 VCL1        0.0000
    200 C57         0.5730    8.7920   -7.0070 C.3       1 VCL1        0.0000
    201 H57R        0.0160    8.3310   -7.8530 H         1 VCL1        0.0000
    202 H57S        1.6110    8.3860   -7.0370 H         1 VCL1        0.0000
    203 C58         0.6710   10.3070   -7.2120 C.3       1 VCL1        0.0000
    204 H58R        1.4330   10.7180   -6.5140 H         1 VCL1        0.0000
    205 H58S       -0.3010   10.7860   -6.9720 H         1 VCL1        0.0000
    206 C59         1.0660   10.6320   -8.6580 C.3       1 VCL1        0.0000
    207 H59R        0.2570   10.2800   -9.3370 H         1 VCL1        0.0000
    208 H59S        1.9900   10.0670   -8.9130 H         1 VCL1        0.0000
    209 C510        1.3120   12.1230   -8.9070 C.3       1 VCL1        0.0000
    210 H510        2.0570   12.5090   -8.1780 H         1 VCL1        0.0000
    211 H510        0.3660   12.6730   -8.7280 H         1 VCL1        0.0000
    212 C511        1.8080   12.3920  -10.3350 C.3       1 VCL1        0.0000
    213 H511        1.2170   11.7810  -11.0540 H         1 VCL1        0.0000
    214 H511        2.8700   12.0700  -10.4140 H         1 VCL1        0.0000
    215 C512        1.6800   13.8650  -10.7390 C.3       1 VCL1        0.0000
    216 H512        2.0680   14.5110   -9.9210 H         1 VCL1        0.0000
    217 H512        0.6000   14.0930  -10.8720 H         1 VCL1        0.0000
    218 C513        2.4280   14.2020  -12.0340 C.3       1 VCL1        0.0000
    219 H513        2.1360   13.4720  -12.8230 H         1 VCL1        0.0000
    220 H513        3.5210   14.0820  -11.8520 H         1 VCL1        0.0000
    221 C514        2.1510   15.6210  -12.5370 C.3       1 VCL1        0.0000
    222 H514        2.3880   16.3690  -11.7490 H         1 VCL1        0.0000
    223 H514        1.0800   15.7320  -12.8130 H         1 VCL1        0.0000
    224 H514        2.7690   15.8470  -13.4320 H         1 VCL1        0.0000
    225 C33         3.0760    6.7350    1.0340 C.3       1 VCL1        0.0000
    226 H33R        2.1410    7.0390    0.5030 H         1 VCL1        0.0000
    227 O33         4.2440    7.4180    0.5630 O.3       1 VCL1        0.0000
    228 C41         4.0530    8.2630   -0.4450 C.2       1 VCL1        0.0000
    229 O41         3.0080    8.4540   -1.0270 O.2       1 VCL1        0.0000
    230 C42         5.4010    8.8320   -0.8890 C.3       1 VCL1        0.0000
    231 H42S        5.4440    8.7660   -1.9940 H         1 VCL1        0.0000
    232 H42R        6.2120    8.2020   -0.4690 H         1 VCL1        0.0000
    233 C43         5.6000   10.3010   -0.4550 C.3       1 VCL1        0.0000
    234 H43R        6.6620   10.5700   -0.6620 H         1 VCL1        0.0000
    235 H43S        5.4460   10.4130    0.6410 H         1 VCL1        0.0000
    236 C44         4.7200   11.3090   -1.2110 C.3       1 VCL1        0.0000
    237 H44R        3.6440   11.1180   -0.9940 H         1 VCL1        0.0000
    238 H44S        4.8730   11.1750   -2.3060 H         1 VCL1        0.0000
    239 C45         5.0680   12.7550   -0.8290 C.3       1 VCL1        0.0000
    240 H45R        6.1730   12.8830   -0.8860 H         1 VCL1        0.0000
    241 H45S        4.7570   12.9390    0.2240 H         1 VCL1        0.0000
    242 C46         4.4310   13.8110   -1.7430 C.3       1 VCL1        0.0000
    243 H46R        3.3250   13.6920   -1.7370 H         1 VCL1        0.0000
    244 H46S        4.7850   13.6500   -2.7850 H         1 VCL1        0.0000
    245 C47         4.7840   15.2400   -1.3030 C.3       1 VCL1        0.0000
    246 H47R        5.8760   15.3150   -1.1060 H         1 VCL1        0.0000
    247 H47S        4.2620   15.4450   -0.3420 H         1 VCL1        0.0000
    248 C48         4.3930   16.3080   -2.3350 C.3       1 VCL1        0.0000
    249 H48R        3.5140   15.9540   -2.9180 H         1 VCL1        0.0000
    250 H48S        5.2380   16.4480   -3.0480 H         1 VCL1        0.0000
    251 C49         4.0340   17.6530   -1.6870 C.3       1 VCL1        0.0000
    252 H49R        4.8790   17.9850   -1.0420 H         1 VCL1        0.0000
    253 H49S        3.1420   17.5130   -1.0330 H         1 VCL1        0.0000
    254 C410        3.7280   18.7490   -2.7160 C.3       1 VCL1        0.0000
    255 H410        2.8290   18.4600   -3.3050 H         1 VCL1        0.0000
    256 H410        4.5840   18.8320   -3.4230 H         1 VCL1        0.0000
    257 C411        3.4950   20.1190   -2.0650 C.3       1 VCL1        0.0000
    258 H411        4.4320   20.4280   -1.5490 H         1 VCL1        0.0000
    259 H411        2.6990   20.0360   -1.2920 H         1 VCL1        0.0000
    260 C412        3.0950   21.2010   -3.0770 C.3       1 VCL1        0.0000
    261 H412        2.0480   21.0170   -3.4030 H         1 VCL1        0.0000
    262 H412        3.7470   21.1270   -3.9770 H         1 VCL1        0.0000
    263 C413        3.2170   22.6190   -2.5030 C.3       1 VCL1        0.0000
    264 H413        4.2960   22.8680   -2.3920 H         1 VCL1        0.0000
    265 H413        2.7580   22.6490   -1.4900 H         1 VCL1        0.0000
    266 C414        2.5360   23.6780   -3.3810 C.3       1 VCL1        0.0000
    267 H414        1.4370   23.5040   -3.3660 H         1 VCL1        0.0000
    268 H414        2.8820   23.5670   -4.4330 H         1 VCL1        0.0000
    269 C415        2.8290   25.1090   -2.9100 C.3       1 VCL1        0.0000
    270 H415        3.9200   25.3050   -3.0330 H         1 VCL1        0.0000
    271 H415        2.5970   25.1850   -1.8230 H         1 VCL1        0.0000
    272 C416        2.0350   26.1760   -3.6670 C.3       1 VCL1        0.0000
    273 H416        0.9470   26.0550   -3.4770 H         1 VCL1        0.0000
    274 H416        2.2120   26.0930   -4.7600 H         1 VCL1        0.0000
    275 H416        2.3370   27.1940   -3.3370 H         1 VCL1        0.0000
    276 C34         2.9120    7.0810    2.5340 C.3       1 VCL1        0.0000
    277 H34R        3.7270    6.5680    3.0920 H         1 VCL1        0.0000
    278 H34S        1.9470    6.6640    2.8920 H         1 VCL1        0.0000
    279 C35         2.9730    8.5850    2.8990 C.3       1 VCL1        0.0000
    280 H35R        4.0000    8.9640    2.7000 H         1 VCL1        0.0000
    281 H35S        2.7930    8.6760    3.9940 H         1 VCL1        0.0000
    282 C36         1.9600    9.4810    2.1640 C.3       1 VCL1        0.0000
    283 H36R        0.9580    8.9990    2.1840 H         1 VCL1        0.0000
    284 H36S        2.2590    9.5870    1.1000 H         1 VCL1        0.0000
    285 C37         1.8370   10.8960    2.7620 C.3       1 VCL1        0.0000
    286 H37R        2.8450   11.3590    2.8450 H         1 VCL1        0.0000
    287 H37S        1.4180   10.8110    3.7890 H         1 VCL1        0.0000
    288 C38         0.9330   11.8090    1.9160 C.3       1 VCL1        0.0000
    289 H38R       -0.0030   11.2530    1.6800 H         1 VCL1        0.0000
    290 H38S        1.4430   12.0330    0.9530 H         1 VCL1        0.0000
    291 C39         0.5430   13.1270    2.6060 C.3       1 VCL1        0.0000
    292 H39R        1.4560   13.7210    2.8320 H         1 VCL1        0.0000
    293 H39S        0.0430   12.8910    3.5720 H         1 VCL1        0.0000
    294 C310       -0.4170   13.9730    1.7510 C.3       1 VCL1        0.0000
    295 H310       -1.2780   13.3350    1.4460 H         1 VCL1        0.0000
    296 H310        0.1050   14.2980    0.8240 H         1 VCL1        0.0000
    297 C311       -0.9680   15.2060    2.4830 C.3       1 VCL1        0.0000
    298 H311       -0.1210   15.8710    2.7670 H         1 VCL1        0.0000
    299 H311       -1.4600   14.8700    3.4240 H         1 VCL1        0.0000
    300 C312       -1.9810   16.0040    1.6540 C.3       1 VCL1        0.0000
    301 H312       -2.8220   15.3510    1.3340 H         1 VCL1        0.0000
    302 H312       -1.4990   16.4250    0.7450 H         1 VCL1        0.0000
    303 H312       -2.4000   16.8440    2.2500 H         1 VCL1        0.0000
    304 C11         4.0860    1.5150   -1.1890 C.2       1 VCL1        0.0000
    305 O11         3.8640    2.7020   -1.4170 O.2       1 VCL1        0.0000
    306 C12         5.0890    0.7290   -2.0150 C.3       1 VCL1        0.0000
    307 H12R        4.5180   -0.0220   -2.6020 H         1 VCL1        0.0000
    308 H12S        5.7750    0.1850   -1.3370 H         1 VCL1        0.0000
    309 C13         5.8910    1.6450   -2.9660 C.3       1 VCL1        0.0000
    310 H13R        5.3050    2.5620   -3.2060 H         1 VCL1        0.0000
    311 O13         6.2380    0.8880   -4.1410 O.3       1 VCL1        0.0000
    312 C21         5.7490    1.3670   -5.2850 C.2       1 VCL1        0.0000
    313 O21         5.0270    2.3380   -5.4000 O.2       1 VCL1        0.0000
    314 C22         6.1290    0.4620   -6.4550 C.3       1 VCL1        0.0000
    315 H22S        5.2250    0.3430   -7.0880 H         1 VCL1        0.0000
    316 H22R        6.4130   -0.5330   -6.0530 H         1 VCL1        0.0000
    317 C23         7.2880    1.0410   -7.3030 C.3       1 VCL1        0.0000
    318 H23R        7.6030    0.2500   -8.0210 H         1 VCL1        0.0000
    319 H23S        8.1650    1.2640   -6.6570 H         1 VCL1        0.0000
    320 C24         6.9270    2.2870   -8.1310 C.3       1 VCL1        0.0000
    321 H24R        6.6040    3.1150   -7.4600 H         1 VCL1        0.0000
    322 H24S        6.0710    2.0410   -8.8000 H         1 VCL1        0.0000
    323 C25         8.1160    2.7610   -8.9850 C.3       1 VCL1        0.0000
    324 H25R        8.5630    1.8740   -9.4890 H         1 VCL1        0.0000
    325 H25S        8.8910    3.2000   -8.3160 H         1 VCL1        0.0000
    326 C26         7.7480    3.7760  -10.0790 C.3       1 VCL1        0.0000
    327 H26R        7.2820    4.6740   -9.6160 H         1 VCL1        0.0000
    328 H26S        6.9950    3.3160  -10.7560 H         1 VCL1        0.0000
    329 C27         8.9690    4.2130  -10.9060 C.3       1 VCL1        0.0000
    330 H27R        9.5740    3.3210  -11.1800 H         1 VCL1        0.0000
    331 H27S        9.6090    4.8590  -10.2640 H         1 VCL1        0.0000
    332 C28         8.6040    4.9720  -12.1940 C.3       1 VCL1        0.0000
    333 H28R        7.6550    5.5310  -12.0340 H         1 VCL1        0.0000
    334 H28S        8.4290    4.2330  -13.0090 H         1 VCL1        0.0000
    335 C29         9.6910    5.9710  -12.6240 C.3       1 VCL1        0.0000
    336 H29R       10.6630    5.4360  -12.7160 H         1 VCL1        0.0000
    337 H29S        9.8010    6.7450  -11.8300 H         1 VCL1        0.0000
    338 C210        9.3790    6.6710  -13.9560 C.3       1 VCL1        0.0000
    339 H210        8.4390    7.2570  -13.8500 H         1 VCL1        0.0000
    340 H210        9.2100    5.9010  -14.7420 H         1 VCL1        0.0000
    341 C211       10.5100    7.6040  -14.4150 C.3       1 VCL1        0.0000
    342 H211       11.4260    6.9950  -14.5860 H         1 VCL1        0.0000
    343 H211       10.7400    8.3330  -13.6060 H         1 VCL1        0.0000
    344 C212       10.1720    8.3760  -15.6990 C.3       1 VCL1        0.0000
    345 H212        9.3590    9.1040  -15.4810 H         1 VCL1        0.0000
    346 H212        9.7920    7.6640  -16.4650 H         1 VCL1        0.0000
    347 C213       11.3810    9.1230  -16.2820 C.3       1 VCL1        0.0000
    348 H213       12.1480    8.3720  -16.5810 H         1 VCL1        0.0000
    349 H213       11.8300    9.7620  -15.4870 H         1 VCL1        0.0000
    350 C214       11.0340    9.9980  -17.4910 C.3       1 VCL1        0.0000
    351 H214       10.3420   10.8150  -17.1930 H         1 VCL1        0.0000
    352 H214       10.5440    9.3920  -18.2830 H         1 VCL1        0.0000
    353 H214       11.9530   10.4560  -17.9170 H         1 VCL1        0.0000
    354 C14         7.1930    2.1110   -2.2770 C.3       1 VCL1        0.0000
    355 H14R        7.6980    1.2130   -1.8560 H         1 VCL1        0.0000
    356 H14S        6.9140    2.7650   -1.4220 H         1 VCL1        0.0000
    357 C15         8.2030    2.8470   -3.1760 C.3       1 VCL1        0.0000
    358 H15R        8.5590    2.1490   -3.9670 H         1 VCL1        0.0000
    359 H15S        9.0820    3.1130   -2.5470 H         1 VCL1        0.0000
    360 C16         7.6700    4.1260   -3.8390 C.3       1 VCL1        0.0000
    361 H16R        7.1100    4.7310   -3.0920 H         1 VCL1        0.0000
    362 H16S        6.9660    3.8570   -4.6570 H         1 VCL1        0.0000
    363 C17         8.8080    4.9750   -4.4210 C.3       1 VCL1        0.0000
    364 H17R        9.4590    4.3310   -5.0530 H         1 VCL1        0.0000
    365 H17S        9.4250    5.3570   -3.5760 H         1 VCL1        0.0000
    366 C18         8.3190    6.1600   -5.2630 C.3       1 VCL1        0.0000
    367 H18R        7.5520    6.7250   -4.6870 H         1 VCL1        0.0000
    368 H18S        7.8350    5.7780   -6.1880 H         1 VCL1        0.0000
    369 C19         9.4620    7.1150   -5.6350 C.3       1 VCL1        0.0000
    370 H19R       10.2290    6.5650   -6.2230 H         1 VCL1        0.0000
    371 H19S        9.9460    7.4660   -4.6960 H         1 VCL1        0.0000
    372 C110        8.9900    8.3370   -6.4340 C.3       1 VCL1        0.0000
    373 H110        8.1870    8.8450   -5.8530 H         1 VCL1        0.0000
    374 H110        8.5520    8.0080   -7.4030 H         1 VCL1        0.0000
    375 C111       10.1190    9.3460   -6.6930 C.3       1 VCL1        0.0000
    376 H111       10.8900    8.8850   -7.3490 H         1 VCL1        0.0000
    377 H111       10.6060    9.5950   -5.7230 H         1 VCL1        0.0000
    378 C112        9.6120   10.6460   -7.3320 C.3       1 VCL1        0.0000
    379 H112        8.7440   11.0070   -6.7370 H         1 VCL1        0.0000
    380 H112        9.2500   10.4380   -8.3620 H         1 VCL1        0.0000
    381 C113       10.6730   11.7550   -7.3660 C.3       1 VCL1        0.0000
    382 H113       11.5510   11.4060   -7.9540 H         1 VCL1        0.0000
    383 H113       11.0250   11.9370   -6.3240 H         1 VCL1        0.0000
    384 C114       10.1570   13.0700   -7.9590 C.3       1 VCL1        0.0000
    385 H114        9.2390   13.4010   -7.4280 H         1 VCL1        0.0000
    386 H114        9.9130   12.9480   -9.0360 H         1 VCL1        0.0000
    387 H114       10.9240   13.8690   -7.8640 H         1 VCL1        0.0000
@<TRIPOS>BOND
     1  352  350 1 
     2  353  350 1 
     3  350  351 1 
     4  350  347 1 
     5  110  109 1 
     6  348  347 1 
     7  112  109 1 
     8  346  344 1 
     9  111  109 1 
    10  347  344 1 
    11  347  349 1 
    12  109  106 1 
    13  344  345 1 
    14  344  341 1 
    15  104  103 1 
    16  106  108 1 
    17  106  103 1 
    18  106  107 1 
    19  340  338 1 
    20  342  341 1 
    21  103  105 1 
    22  103  100 1 
    23  341  338 1 
    24  341  343 1 
    25  338  339 1 
    26  338  335 1 
    27   99   97 1 
    28  102  100 1 
    29  224  221 1 
    30  100   97 1 
    31  100  101 1 
    32  334  332 1 
    33   95   94 1 
    34   97   98 1 
    35   97   94 1 
    36  219  218 1 
    37  223  221 1 
    38  336  335 1 
    39  335  332 1 
    40  335  337 1 
    41  188  187 1 
    42  221  218 1 
    43  221  222 1 
    44   94   96 1 
    45   94   91 1 
    46  332  333 1 
    47  332  329 1 
    48   93   91 1 
    49  218  220 1 
    50  218  215 1 
    51  189  187 1 
    52  187  190 1 
    53  187  184 1 
    54   89   88 1 
    55   91   88 1 
    56   91   92 1 
    57  182  181 1 
    58  140  137 1 
    59  330  329 1 
    60  213  212 1 
    61  329  331 1 
    62  329  326 1 
    63  217  215 1 
    64  136  134 1 
    65  328  326 1 
    66  215  212 1 
    67  215  216 1 
    68   88   90 1 
    69   88   85 1 
    70  138  137 1 
    71   87   85 1 
    72  184  181 1 
    73  184  186 1 
    74  184  185 1 
    75  214  212 1 
    76  181  183 1 
    77  181  178 1 
    78  212  209 1 
    79  137  134 1 
    80  137  139 1 
    81  326  327 1 
    82  326  323 1 
    83  176  175 1 
    84  134  135 1 
    85  134  131 1 
    86   85   86 1 
    87   85   82 1 
    88  324  323 1 
    89  207  206 1 
    90  132  131 1 
    91  180  178 1 
    92  178  175 1 
    93  178  179 1 
    94  175  177 1 
    95  175  172 1 
    96  130  128 1 
    97  386  384 1 
    98  323  325 1 
    99  323  320 1 
   100  208  206 1 
   101  209  211 1 
   102  209  206 1 
   103  209  210 1 
   104  131  128 1 
   105  131  133 1 
   106  322  320 1 
   107   83   82 1 
   108  206  203 1 
   109   82   84 1 
   110   82   79 1 
   111  380  378 1 
   112  128  129 1 
   113  128  125 1 
   114  174  172 1 
   115  320  321 1 
   116  320  317 1 
   117   80   79 1 
   118  318  317 1 
   119  384  387 1 
   120  384  385 1 
   121  384  381 1 
   122  382  381 1 
   123  172  173 1 
   124  172  169 1 
   125  126  125 1 
   126  201  200 1 
   127  170  169 1 
   128   81   79 1 
   129   79   77 1 
   130  124  122 1 
   131  374  372 1 
   132  381  378 1 
   133  381  383 1 
   134  376  375 1 
   135  378  379 1 
   136  378  375 1 
   137  317  319 1 
   138  317  314 1 
   139  125  122 1 
   140  125  127 1 
   141  203  200 1 
   142  203  205 1 
   143  203  204 1 
   144  169  171 1 
   145  169  166 1 
   146  315  314 1 
   147  202  200 1 
   148  200  197 1 
   149  164  163 1 
   150  165  163 1 
   151  122  123 1 
   152  122  119 1 
   153  375  372 1 
   154  375  377 1 
   155  120  119 1 
   156  314  316 1 
   157  314  312 1 
   158  372  373 1 
   159  372  369 1 
   160  163  166 1 
   161  163  160 1 
   162  370  369 1 
   163   77   76 1 
   164   77   78 2 
   165  368  366 1 
   166  195  194 1 
   167  166  168 1 
   168  166  167 1 
   169  119  121 1 
   170  119  116 1 
   171  199  197 1 
   172   76   74 1 
   173  158  157 1 
   174  159  157 1 
   175  197  194 1 
   176  197  198 1 
   177  369  366 1 
   178  369  371 1 
   179  150  149 2 
   180  313  312 2 
   181  312  311 1 
   182  366  367 1 
   183  366  363 1 
   184  194  196 1 
   185  194  191 1 
   186  157  160 1 
   187  157  154 1 
   188  364  363 1 
   189  160  162 1 
   190  160  161 1 
   191  114  113 1 
   192  274  272 1 
   193  118  116 1 
   194  362  360 1 
   195  116  113 1 
   196  116  117 1 
   197   29   27 1 
   198  152  151 1 
   199  268  266 1 
   200  363  360 1 
   201  363  365 1 
   202   74  113 1 
   203   74   27 1 
   204   74   75 1 
   205  147  146 1 
   206  193  191 1 
   207  149  151 1 
   208  149  148 1 
   209   28   27 1 
   210  113  115 1 
   211  311  309 1 
   212  191  146 1 
   213  191  192 1 
   214   27   25 1 
   215  262  260 1 
   216  358  357 1 
   217  151  154 1 
   218  151  153 1 
   219  360  357 1 
   220  360  361 1 
   221  154  155 1 
   222  154  156 1 
   223  272  273 1 
   224  272  275 1 
   225  272  269 1 
   226  146  148 1 
   227  146  143 1 
   228  142  141 2 
   229  256  254 1 
   230  261  260 1 
   231  266  267 1 
   232  266  269 1 
   233  266  263 1 
   234  255  254 1 
   235  310  309 1 
   236  357  359 1 
   237  357  354 1 
   238  260  263 1 
   239  260  257 1 
   240  250  248 1 
   241  270  269 1 
   242  309  354 1 
   243  309  306 1 
   244   21   18 2 
   245  249  248 1 
   246  269  271 1 
   247  244  242 1 
   248  254  257 1 
   249  254  251 1 
   250  307  306 1 
   251   25   23 1 
   252   25   26 2 
   253  263  264 1 
   254  263  265 1 
   255  141  143 1 
   256  141   32 am
   257   23   22 1 
   258  248  251 1 
   259  248  245 1 
   260   19   18 1 
   261  238  236 1 
   262  354  355 1 
   263  354  356 1 
   264  143  144 1 
   265  143  145 1 
   266  257  258 1 
   267  257  259 1 
   268   31   30 1 
   269  306  308 1 
   270  306  304 1 
   271  231  230 1 
   272   18   20 1 
   273   18   17 1 
   274   16   15 1 
   275  242  243 1 
   276  242  245 1 
   277  242  239 1 
   278  251  252 1 
   279  251  253 1 
   280  305  304 2 
   281   32   30 1 
   282   32   33 1 
   283  245  246 1 
   284  245  247 1 
   285  236  237 1 
   286  236  239 1 
   287  236  233 1 
   288  304   72 am
   289   30   22 1 
   290   30    9 1 
   291   22   15 1 
   292   22   24 1 
   293  229  228 2 
   294   71   70 1 
   295   15   17 1 
   296   15    6 1 
   297  230  232 1 
   298  230  233 1 
   299  230  228 1 
   300  240  239 1 
   301   42   41 1 
   302  239  241 1 
   303   45   43 1 
   304  234  233 1 
   305  233  235 1 
   306  228  227 1 
   307   72   70 1 
   308   72   73 1 
   309    5    4 1 
   310   68   67 1 
   311   56   54 2 
   312   11    9 1 
   313   11   12 1 
   314   70   41 1 
   315   70   62 1 
   316   40   41 1 
   317   40   38 1 
   318   44   43 1 
   319   43   46 1 
   320   43   47 1 
   321   60   58 2 
   322   41   59 1 
   323    9    7 1 
   324    9   10 1 
   325    7    6 1 
   326   53   54 1 
   327   53   50 1 
   328   35   34 1 
   329    6    4 1 
   330    6    8 1 
   331  226  225 1 
   332  227  225 1 
   333   51   50 1 
   334    4    1 1 
   335    4    2 1 
   336  302  300 1 
   337   55   54 1 
   338   55   58 1 
   339   67  225 1 
   340   67   65 1 
   341   67   69 1 
   342  296  294 1 
   343   54   57 1 
   344   13   12 1 
   345  290  288 1 
   346  225  276 1 
   347   12   38 1 
   348   12   14 1 
   349   64   65 1 
   350   64   62 1 
   351   65   66 2 
   352   50   47 1 
   353   50   52 1 
   354  284  282 1 
   355   62   34 1 
   356   62   63 1 
   357   38   34 1 
   358   38   39 1 
   359   34   36 1 
   360   58   59 1 
   361   58   61 1 
   362   47   48 1 
   363   47   49 1 
   364  301  300 1 
   365  295  294 1 
   366    3    2 1 
   367  300  303 1 
   368  300  297 1 
   369  289  288 1 
   370  294  297 1 
   371  294  291 1 
   372  288  291 1 
   373  288  285 1 
   374   37   36 1 
   375  282  283 1 
   376  282  285 1 
   377  282  279 1 
   378  297  298 1 
   379  297  299 1 
   380  276  278 1 
   381  276  279 1 
   382  276  277 1 
   383  291  292 1 
   384  291  293 1 
   385  280  279 1 
   386  285  286 1 
   387  285  287 1 
   388  279  281 1 
