@<TRIPOS>MOLECULE
C:\Users\Praveer\PycharmProjects\pdb_to_mol2_converter\data\pdb\vclipa.pdb
  285   286     0     0     0
SMALL
GASTEIGER

@<TRIPOS>ATOM
      1 HB6S       -7.9810    2.1300    0.6980 H         1 VCL1        0.0000
      2 OB6        -6.7950    0.6700    1.6080 O.3       1 VCL1        0.0000
      3 HOB6       -5.9220    0.2940    1.4500 H         1 VCL1        0.0000
      4 CB6        -7.0280    1.5780    0.5260 C.3       1 VCL1        0.0000
      5 HB6R       -7.1390    1.0010   -0.4240 H         1 VCL1        0.0000
      6 CB5        -5.8740    2.5490    0.3740 C.3       1 VCL1        0.0000
      7 OB5        -4.6780    1.7560    0.2980 O.3       1 VCL1        0.0000
      8 HB5        -5.8310    3.2090    1.2730 H         1 VCL1        0.0000
      9 CB1        -3.5030    2.5510    0.1670 C.3       1 VCL1        0.0000
     10 HB1        -3.3520    3.2050    1.0560 H         1 VCL1        0.0000
     11 OA6        -2.3770    1.7370   -0.0190 O.3       1 VCL1        0.0000
     12 CA6        -2.1020    0.8700    1.0850 C.3       1 VCL1        0.0000
     13 HA6R       -2.5600   -0.1280    0.9070 H         1 VCL1        0.0000
     14 HA6S       -2.5080    1.2810    2.0340 H         1 VCL1        0.0000
     15 CB4        -5.9990    3.3870   -0.8850 C.3       1 VCL1        0.0000
     16 HB4        -6.0710    2.6660   -1.7390 H         1 VCL1        0.0000
     17 OB4        -7.1720    4.1790   -0.7300 O.3       1 VCL1        0.0000
     18 PB         -8.3780    4.2230   -1.8690 P.3       1 VCL1        0.0000
     19 OPB4       -8.3820    5.6640   -2.3600 O.3       1 VCL1        0.0000
     20 OPB3       -9.6360    3.8200   -1.1140 O.3       1 VCL1        0.0000
     21 OPB2       -7.9780    3.2390   -2.9610 O.2       1 VCL1        0.0000
     22 CB3        -4.7830    4.2480   -1.1230 C.3       1 VCL1        0.0000
     23 OB3        -4.8590    4.8150   -2.4260 O.3       1 VCL1        0.0000
     24 HB3        -4.6870    5.0220   -0.3210 H         1 VCL1        0.0000
     25 C71        -5.5210    5.9780   -2.5310 C.2       1 VCL1        0.0000
     26 O71        -5.3880    6.8910   -1.7270 O.2       1 VCL1        0.0000
     27 C72        -5.7220    6.1890   -4.0260 C.3       1 VCL1        0.0000
     28 H72R       -6.7240    5.7700   -4.2690 H         1 VCL1        0.0000
     29 H72S       -4.9660    5.6190   -4.5970 H         1 VCL1        0.0000
     30 CB2        -3.5500    3.3790   -1.0970 C.3       1 VCL1        0.0000
     31 HB2        -3.6560    2.6470   -1.9420 H         1 VCL1        0.0000
     32 NB2        -2.3100    4.1290   -1.2710 N.am      1 VCL1        0.0000
     33 HNB2       -1.9280    4.5380   -0.4530 H         1 VCL1        0.0000
     34 CA4         0.0750    2.1010    1.2360 C.3       1 VCL1        0.0000
     35 HA4        -0.2370    2.6560    0.3190 H         1 VCL1        0.0000
     36 OA4        -0.3580    2.8380    2.3770 O.3       1 VCL1        0.0000
     37 HOA4       -0.1980    3.7660    2.1560 H         1 VCL1        0.0000
     38 CA5        -0.5990    0.7410    1.1860 C.3       1 VCL1        0.0000
     39 HA5        -0.3370    0.1620    2.1060 H         1 VCL1        0.0000
     40 OA5        -0.1730    0.0110    0.0230 O.3       1 VCL1        0.0000
     41 CA1         1.2480   -0.1900   -0.0440 C.3       1 VCL1        0.0000
     42 HA1         1.4400   -0.6700   -1.0420 H         1 VCL1        0.0000
     43 OA1         1.6620   -1.0170    1.0300 O.3       1 VCL1        0.0000
     44 OPA2        2.8570   -2.9650    2.0600 O.3       1 VCL1        0.0000
     45 OPA3        2.5390   -2.8380   -0.4850 O.2       1 VCL1        0.0000
     46 OPA4        4.1390   -1.2510    0.6770 O.3       1 VCL1        0.0000
     47 PA          2.8810   -2.1050    0.8090 P.3       1 VCL1        0.0000
     48 CA3         1.5780    1.9560    1.1680 C.3       1 VCL1        0.0000
     49 HA3         1.9040    1.3460    2.0460 H         1 VCL1        0.0000
     50 OA3         2.4130    3.1130    1.1660 O.3       1 VCL1        0.0000
     51 C31         2.0280    4.3400    0.9720 C.2       1 VCL1        0.0000
     52 O31         0.8770    4.7610    0.9300 O.2       1 VCL1        0.0000
     53 C32         3.2360    5.1880    1.3390 C.3       1 VCL1        0.0000
     54 H32R        4.0630    4.9180    0.6510 H         1 VCL1        0.0000
     55 H32S        3.5340    4.9130    2.3720 H         1 VCL1        0.0000
     56 CA2         1.9210    1.1670   -0.0710 C.3       1 VCL1        0.0000
     57 HA2         1.4680    1.7060   -0.9450 H         1 VCL1        0.0000
     58 NA2         3.3360    1.0360   -0.3230 N.am      1 VCL1        0.0000
     59 HNA2        3.7280    0.1910    0.1130 H         1 VCL1        0.0000
     60 C73        -5.6840    7.6660   -4.4250 C.3       1 VCL1        0.0000
     61 H73R       -6.4590    8.2160   -3.8350 H         1 VCL1        0.0000
     62 O73        -5.9350    7.6520   -5.8350 O.3       1 VCL1        0.0000
     63 C81        -7.0720    8.1930   -6.2300 C.2       1 VCL1        0.0000
     64 O81        -7.7470    8.9890   -5.6180 O.2       1 VCL1        0.0000
     65 C82        -7.3020    7.8820   -7.7200 C.3       1 VCL1        0.0000
     66 H82R       -7.7390    8.8150   -8.1380 H         1 VCL1        0.0000
     67 H82S       -8.0700    7.0860   -7.7780 H         1 VCL1        0.0000
     68 C83        -6.0600    7.4870   -8.5660 C.3       1 VCL1        0.0000
     69 H83R       -6.0180    6.3810   -8.6860 H         1 VCL1        0.0000
     70 H83S       -5.1190    7.8000   -8.0600 H         1 VCL1        0.0000
     71 C84        -6.1110    8.1800   -9.9350 C.3       1 VCL1        0.0000
     72 H84R       -6.2800    9.2630   -9.7360 H         1 VCL1        0.0000
     73 H84S       -6.9860    7.8140  -10.5130 H         1 VCL1        0.0000
     74 C85        -4.8350    8.0620  -10.7790 C.3       1 VCL1        0.0000
     75 H85R       -4.9300    7.2140  -11.4930 H         1 VCL1        0.0000
     76 H85S       -3.9740    7.8410  -10.1090 H         1 VCL1        0.0000
     77 C86        -4.5300    9.3650  -11.5390 C.3       1 VCL1        0.0000
     78 H86R       -4.5250   10.2060  -10.8040 H         1 VCL1        0.0000
     79 H86S       -5.3390    9.5640  -12.2800 H         1 VCL1        0.0000
     80 C87        -3.1630    9.3330  -12.2390 C.3       1 VCL1        0.0000
     81 H87R       -3.1420    8.5120  -12.9900 H         1 VCL1        0.0000
     82 H87S       -2.3840    9.1130  -11.4730 H         1 VCL1        0.0000
     83 C88        -2.8120   10.6620  -12.9230 C.3       1 VCL1        0.0000
     84 H88R       -3.0290   11.4910  -12.2100 H         1 VCL1        0.0000
     85 H88S       -3.4600   10.8100  -13.8140 H         1 VCL1        0.0000
     86 C89        -1.3330   10.7770  -13.3260 C.3       1 VCL1        0.0000
     87 H89R       -0.6920   10.5910  -12.4360 H         1 VCL1        0.0000
     88 H89S       -1.1490   11.8270  -13.6540 H         1 VCL1        0.0000
     89 C810       -0.9000    9.8420  -14.4670 C.3       1 VCL1        0.0000
     90 H810       -1.5630   10.0110  -15.3450 H         1 VCL1        0.0000
     91 H810       -1.0130    8.7800  -14.1590 H         1 VCL1        0.0000
     92 C811        0.5580   10.1000  -14.8800 C.3       1 VCL1        0.0000
     93 H811        1.2240    9.7120  -14.0750 H         1 VCL1        0.0000
     94 H811        0.7160   11.2010  -14.9370 H         1 VCL1        0.0000
     95 C812        0.9660    9.4870  -16.2240 C.3       1 VCL1        0.0000
     96 H812        0.3680    9.9290  -17.0500 H         1 VCL1        0.0000
     97 H812        0.8130    8.3870  -16.2230 H         1 VCL1        0.0000
     98 H812        2.0400    9.6900  -16.4290 H         1 VCL1        0.0000
     99 C74        -4.3110    8.3440   -4.1960 C.3       1 VCL1        0.0000
    100 H74R       -3.5200    7.7470   -4.6920 H         1 VCL1        0.0000
    101 H74S       -4.0960    8.3380   -3.1050 H         1 VCL1        0.0000
    102 C75        -4.2700    9.8100   -4.6710 C.3       1 VCL1        0.0000
    103 H75R       -3.7860   10.4440   -3.8960 H         1 VCL1        0.0000
    104 H75S       -5.3210   10.1610   -4.7670 H         1 VCL1        0.0000
    105 C76        -3.5400   10.0270   -6.0050 C.3       1 VCL1        0.0000
    106 H76R       -3.6790    9.1410   -6.6610 H         1 VCL1        0.0000
    107 H76S       -2.4510   10.1090   -5.7970 H         1 VCL1        0.0000
    108 C77        -4.0310   11.2770   -6.7530 C.3       1 VCL1        0.0000
    109 H77R       -4.4990   11.9770   -6.0220 H         1 VCL1        0.0000
    110 H77S       -4.8250   10.9680   -7.4730 H         1 VCL1        0.0000
    111 C78        -2.9120   12.0320   -7.4880 C.3       1 VCL1        0.0000
    112 H78R       -2.2900   11.3130   -8.0660 H         1 VCL1        0.0000
    113 H78S       -2.2560   12.5200   -6.7300 H         1 VCL1        0.0000
    114 C79        -3.4490   13.0990   -8.4560 C.3       1 VCL1        0.0000
    115 H79R       -4.1980   13.7260   -7.9230 H         1 VCL1        0.0000
    116 H79S       -3.9710   12.5860   -9.2950 H         1 VCL1        0.0000
    117 C710       -2.3500   14.0190   -9.0140 C.3       1 VCL1        0.0000
    118 H710       -1.5330   13.4010   -9.4480 H         1 VCL1        0.0000
    119 H710       -1.9230   14.6130   -8.1760 H         1 VCL1        0.0000
    120 C711       -2.8600   14.9800  -10.0980 C.3       1 VCL1        0.0000
    121 H711       -3.8130   15.4400   -9.7480 H         1 VCL1        0.0000
    122 H711       -3.0910   14.3860  -11.0120 H         1 VCL1        0.0000
    123 C712       -1.8750   16.1010  -10.4510 C.3       1 VCL1        0.0000
    124 H712       -0.8790   15.6870  -10.7130 H         1 VCL1        0.0000
    125 H712       -1.7510   16.7940   -9.5900 H         1 VCL1        0.0000
    126 H712       -2.2500   16.6850  -11.3190 H         1 VCL1        0.0000
    127 C51        -1.5640    4.1060   -2.3850 C.2       1 VCL1        0.0000
    128 O51        -1.9650    3.7130   -3.4720 O.2       1 VCL1        0.0000
    129 C52        -0.1360    4.5460   -2.1960 C.3       1 VCL1        0.0000
    130 H52R        0.4340    3.6650   -1.8280 H         1 VCL1        0.0000
    131 H52S       -0.0870    5.3490   -1.4350 H         1 VCL1        0.0000
    132 C53         0.4940    5.0260   -3.5100 C.3       1 VCL1        0.0000
    133 H53R        0.3880    4.2160   -4.2750 H         1 VCL1        0.0000
    134 O53         1.8610    5.3090   -3.1760 O.3       1 VCL1        0.0000
    135 C61         2.7670    4.8630   -4.0420 C.2       1 VCL1        0.0000
    136 O61         2.5340    4.3910   -5.1370 O.2       1 VCL1        0.0000
    137 C62         4.1670    5.2530   -3.5650 C.3       1 VCL1        0.0000
    138 H62R        4.8940    4.7370   -4.2210 H         1 VCL1        0.0000
    139 H62S        4.2910    4.8690   -2.5320 H         1 VCL1        0.0000
    140 C63         4.4210    6.7730   -3.5570 C.3       1 VCL1        0.0000
    141 H63R        5.3890    6.9620   -3.0350 H         1 VCL1        0.0000
    142 H63S        3.6260    7.2880   -2.9790 H         1 VCL1        0.0000
    143 C64         4.5170    7.3920   -4.9530 C.3       1 VCL1        0.0000
    144 H64R        3.6270    7.1280   -5.5640 H         1 VCL1        0.0000
    145 H64S        5.4060    6.9740   -5.4760 H         1 VCL1        0.0000
    146 C65         4.6400    8.9180   -4.8750 C.3       1 VCL1        0.0000
    147 H65R        5.4230    9.1730   -4.1230 H         1 VCL1        0.0000
    148 H65S        3.6790    9.3600   -4.5240 H         1 VCL1        0.0000
    149 C66         5.0380    9.5320   -6.2210 C.3       1 VCL1        0.0000
    150 H66R        4.2080    9.4070   -6.9530 H         1 VCL1        0.0000
    151 H66S        5.9170    8.9770   -6.6180 H         1 VCL1        0.0000
    152 C67         5.4050   11.0170   -6.1070 C.3       1 VCL1        0.0000
    153 H67R        6.1100   11.1700   -5.2590 H         1 VCL1        0.0000
    154 H67S        4.4770   11.5880   -5.8780 H         1 VCL1        0.0000
    155 C68         6.0460   11.5590   -7.3930 C.3       1 VCL1        0.0000
    156 H68R        5.7100   10.9400   -8.2570 H         1 VCL1        0.0000
    157 H68S        7.1510   11.4570   -7.3210 H         1 VCL1        0.0000
    158 C69         5.6780   13.0230   -7.6650 C.3       1 VCL1        0.0000
    159 H69R        5.9710   13.6430   -6.7870 H         1 VCL1        0.0000
    160 H69S        4.5730   13.1030   -7.7860 H         1 VCL1        0.0000
    161 C610        6.3620   13.5720   -8.9240 C.3       1 VCL1        0.0000
    162 H610        6.0300   12.9840   -9.8080 H         1 VCL1        0.0000
    163 H610        7.4640   13.4390   -8.8250 H         1 VCL1        0.0000
    164 C611        6.0600   15.0590   -9.1560 C.3       1 VCL1        0.0000
    165 H611        6.4180   15.6340   -8.2720 H         1 VCL1        0.0000
    166 H611        4.9590   15.2030   -9.2320 H         1 VCL1        0.0000
    167 C612        6.7300   15.6160  -10.4200 C.3       1 VCL1        0.0000
    168 H612        6.2630   15.1490  -11.3160 H         1 VCL1        0.0000
    169 H612        7.8080   15.3380  -10.4170 H         1 VCL1        0.0000
    170 C613        6.6230   17.1440  -10.5290 C.3       1 VCL1        0.0000
    171 H613        7.1550   17.6000   -9.6630 H         1 VCL1        0.0000
    172 H613        5.5510   17.4400  -10.4550 H         1 VCL1        0.0000
    173 C614        7.2100   17.6990  -11.8300 C.3       1 VCL1        0.0000
    174 H614        6.6440   17.3160  -12.7070 H         1 VCL1        0.0000
    175 H614        8.2730   17.3930  -11.9390 H         1 VCL1        0.0000
    176 H614        7.1620   18.8090  -11.8400 H         1 VCL1        0.0000
    177 C54        -0.1750    6.3180   -4.0420 C.3       1 VCL1        0.0000
    178 H54R       -0.1840    7.0770   -3.2310 H         1 VCL1        0.0000
    179 H54S       -1.2310    6.0890   -4.3090 H         1 VCL1        0.0000
    180 C55         0.5150    6.9110   -5.2820 C.3       1 VCL1        0.0000
    181 H55R        0.5540    6.1380   -6.0840 H         1 VCL1        0.0000
    182 H55S        1.5610    7.1720   -5.0090 H         1 VCL1        0.0000
    183 C56        -0.1540    8.1780   -5.8320 C.3       1 VCL1        0.0000
    184 H56R       -0.1260    8.9620   -5.0480 H         1 VCL1        0.0000
    185 H56S       -1.2250    7.9730   -6.0550 H         1 VCL1        0.0000
    186 C57         0.5550    8.6750   -7.1030 C.3       1 VCL1        0.0000
    187 H57R        0.0340    8.2400   -7.9850 H         1 VCL1        0.0000
    188 H57S        1.5970    8.2810   -7.1090 H         1 VCL1        0.0000
    189 C58         0.6430   10.2020   -7.2590 C.3       1 VCL1        0.0000
    190 H58R        1.3110   10.6110   -6.4680 H         1 VCL1        0.0000
    191 H58S       -0.3630   10.6500   -7.1160 H         1 VCL1        0.0000
    192 C59         1.1870   10.5790   -8.6510 C.3       1 VCL1        0.0000
    193 H59R        0.4820   10.1750   -9.4170 H         1 VCL1        0.0000
    194 H59S        2.1740   10.0820   -8.8000 H         1 VCL1        0.0000
    195 C510        1.3490   12.0900   -8.8850 C.3       1 VCL1        0.0000
    196 H510        2.0560   12.5170   -8.1400 H         1 VCL1        0.0000
    197 H510        0.3650   12.5820   -8.7300 H         1 VCL1        0.0000
    198 C511        1.8600   12.4070  -10.3040 C.3       1 VCL1        0.0000
    199 H511        1.2720   11.8150  -11.0410 H         1 VCL1        0.0000
    200 H511        2.9210   12.0830  -10.3850 H         1 VCL1        0.0000
    201 C512        1.7480   13.8900  -10.6900 C.3       1 VCL1        0.0000
    202 H512        2.2040   14.5200   -9.8940 H         1 VCL1        0.0000
    203 H512        0.6690   14.1530  -10.7560 H         1 VCL1        0.0000
    204 C513        2.4230   14.2200  -12.0310 C.3       1 VCL1        0.0000
    205 H513        2.0720   13.4970  -12.8030 H         1 VCL1        0.0000
    206 H513        3.5240   14.0810  -11.9200 H         1 VCL1        0.0000
    207 C514        2.1430   15.6430  -12.5260 C.3       1 VCL1        0.0000
    208 H514        2.4350   16.3910  -11.7580 H         1 VCL1        0.0000
    209 H514        1.0620   15.7730  -12.7480 H         1 VCL1        0.0000
    210 H514        2.7160   15.8550  -13.4550 H         1 VCL1        0.0000
    211 C33         2.9470    6.6910    1.2640 C.3       1 VCL1        0.0000
    212 H33R        3.8730    7.2290    1.5800 H         1 VCL1        0.0000
    213 O33         1.9270    7.0210    2.1900 O.3       1 VCL1        0.0000
    214 HO33        1.0820    6.5990    1.9900 H         1 VCL1        0.0000
    215 C34         2.5670    7.1850   -0.1450 C.3       1 VCL1        0.0000
    216 H34R        1.6200    6.7050   -0.4770 H         1 VCL1        0.0000
    217 H34S        3.3670    6.8660   -0.8470 H         1 VCL1        0.0000
    218 C35         2.3930    8.7090   -0.2330 C.3       1 VCL1        0.0000
    219 H35R        3.3160    9.2180    0.1200 H         1 VCL1        0.0000
    220 H35S        1.5730    9.0000    0.4640 H         1 VCL1        0.0000
    221 C36         2.0400    9.1950   -1.6480 C.3       1 VCL1        0.0000
    222 H36R        1.6690    8.3310   -2.2450 H         1 VCL1        0.0000
    223 H36S        2.9570    9.5800   -2.1460 H         1 VCL1        0.0000
    224 C37         0.9450   10.2720   -1.6400 C.3       1 VCL1        0.0000
    225 H37R        1.2470   11.1080   -0.9720 H         1 VCL1        0.0000
    226 H37S        0.0300    9.8130   -1.1960 H         1 VCL1        0.0000
    227 C38         0.5860   10.8090   -3.0380 C.3       1 VCL1        0.0000
    228 H38R       -0.5190   10.7100   -3.1570 H         1 VCL1        0.0000
    229 H38S        1.0630   10.1780   -3.8180 H         1 VCL1        0.0000
    230 C39         0.9580   12.2830   -3.2780 C.3       1 VCL1        0.0000
    231 H39R        1.9960   12.3450   -3.6740 H         1 VCL1        0.0000
    232 H39S        0.9340   12.8260   -2.3070 H         1 VCL1        0.0000
    233 C310       -0.0230   12.9910   -4.2300 C.3       1 VCL1        0.0000
    234 H310       -1.0510   12.8920   -3.8090 H         1 VCL1        0.0000
    235 H310       -0.0180   12.4940   -5.2250 H         1 VCL1        0.0000
    236 C311        0.2740   14.4870   -4.4050 C.3       1 VCL1        0.0000
    237 H311        1.2500   14.6070   -4.9280 H         1 VCL1        0.0000
    238 H311        0.3760   14.9500   -3.3970 H         1 VCL1        0.0000
    239 C312       -0.8160   15.2360   -5.1790 C.3       1 VCL1        0.0000
    240 H312       -1.8020   15.1100   -4.6790 H         1 VCL1        0.0000
    241 H312       -0.8960   14.8450   -6.2150 H         1 VCL1        0.0000
    242 H312       -0.5890   16.3230   -5.2300 H         1 VCL1        0.0000
    243 C11         3.9900    1.6080   -1.3320 C.2       1 VCL1        0.0000
    244 O11         3.6510    2.6760   -1.8410 O.2       1 VCL1        0.0000
    245 C12         5.1100    0.7620   -1.8950 C.3       1 VCL1        0.0000
    246 H12R        4.6200   -0.1050   -2.3890 H         1 VCL1        0.0000
    247 H12S        5.7040    0.3510   -1.0560 H         1 VCL1        0.0000
    248 C13         6.0200    1.5080   -2.8810 C.3       1 VCL1        0.0000
    249 H13R        5.4370    2.2260   -3.5000 H         1 VCL1        0.0000
    250 O13         6.5810    0.5290   -3.7440 O.3       1 VCL1        0.0000
    251 HO13        5.9440   -0.0940   -4.1060 H         1 VCL1        0.0000
    252 C14         7.1750    2.2370   -2.1590 C.3       1 VCL1        0.0000
    253 H14R        7.6960    1.4670   -1.5440 H         1 VCL1        0.0000
    254 H14S        6.7470    2.9880   -1.4600 H         1 VCL1        0.0000
    255 C15         8.2220    2.9050   -3.0770 C.3       1 VCL1        0.0000
    256 H15R        8.5700    2.1600   -3.8280 H         1 VCL1        0.0000
    257 H15S        9.1020    3.1840   -2.4560 H         1 VCL1        0.0000
    258 C16         7.7080    4.1580   -3.7990 C.3       1 VCL1        0.0000
    259 H16R        7.2690    4.8480   -3.0420 H         1 VCL1        0.0000
    260 H16S        6.8970    3.8580   -4.4990 H         1 VCL1        0.0000
    261 C17         8.8070    4.9100   -4.5750 C.3       1 VCL1        0.0000
    262 H17R        9.2960    4.2190   -5.3000 H         1 VCL1        0.0000
    263 H17S        9.5780    5.2480   -3.8440 H         1 VCL1        0.0000
    264 C18         8.2490    6.1320   -5.3270 C.3       1 VCL1        0.0000
    265 H18R        7.4870    6.6130   -4.6730 H         1 VCL1        0.0000
    266 H18S        7.7270    5.7910   -6.2490 H         1 VCL1        0.0000
    267 C19         9.2970    7.2060   -5.6850 C.3       1 VCL1        0.0000
    268 H19R       10.0650    6.7770   -6.3650 H         1 VCL1        0.0000
    269 H19S        9.8070    7.5260   -4.7480 H         1 VCL1        0.0000
    270 C110        8.6480    8.4430   -6.3360 C.3       1 VCL1        0.0000
    271 H110        7.8590    8.7970   -5.6310 H         1 VCL1        0.0000
    272 H110        8.1430    8.1460   -7.2830 H         1 VCL1        0.0000
    273 C111        9.5920    9.6360   -6.6050 C.3       1 VCL1        0.0000
    274 H111       10.2940    9.7740   -5.7550 H         1 VCL1        0.0000
    275 H111        8.9570   10.5500   -6.6520 H         1 VCL1        0.0000
    276 C112       10.3590    9.5490   -7.9360 C.3       1 VCL1        0.0000
    277 H112        9.6720    9.1660   -8.7250 H         1 VCL1        0.0000
    278 H112       11.1940    8.8220   -7.8270 H         1 VCL1        0.0000
    279 C113       10.9150   10.8990   -8.4210 C.3       1 VCL1        0.0000
    280 H113       11.5650   11.3390   -7.6320 H         1 VCL1        0.0000
    281 H113       10.0670   11.6050   -8.5780 H         1 VCL1        0.0000
    282 C114       11.7130   10.7730   -9.7220 C.3       1 VCL1        0.0000
    283 H114       11.0890   10.3010  -10.5110 H         1 VCL1        0.0000
    284 H114       12.6100   10.1360   -9.5630 H         1 VCL1        0.0000
    285 H114       12.0470   11.7700  -10.0850 H         1 VCL1        0.0000
@<TRIPOS>BOND
     1   96   95 1 
     2   98   95 1 
     3   95   97 1 
     4   95   92 1 
     5   90   89 1 
     6   94   92 1 
     7   92   89 1 
     8   92   93 1 
     9   89   91 1 
    10   89   86 1 
    11   85   83 1 
    12   88   86 1 
    13  210  207 1 
    14   86   83 1 
    15   86   87 1 
    16   81   80 1 
    17   83   80 1 
    18   83   84 1 
    19  205  204 1 
    20  209  207 1 
    21  174  173 1 
    22  207  204 1 
    23  207  208 1 
    24   79   77 1 
    25   80   77 1 
    26   80   82 1 
    27  204  206 1 
    28  204  201 1 
    29  175  173 1 
    30  176  173 1 
    31  173  170 1 
    32   77   78 1 
    33   77   74 1 
    34   75   74 1 
    35  126  123 1 
    36  168  167 1 
    37  199  198 1 
    38  122  120 1 
    39   74   76 1 
    40   74   71 1 
    41  203  201 1 
    42  124  123 1 
    43  201  198 1 
    44  201  202 1 
    45  170  172 1 
    46  170  167 1 
    47  170  171 1 
    48   73   71 1 
    49  283  282 1 
    50  123  120 1 
    51  123  125 1 
    52  167  169 1 
    53  167  164 1 
    54  200  198 1 
    55  198  195 1 
    56  120  121 1 
    57  120  117 1 
    58  285  282 1 
    59   71   72 1 
    60   71   68 1 
    61  162  161 1 
    62  282  284 1 
    63  282  279 1 
    64  118  117 1 
    65  193  192 1 
    66  116  114 1 
    67  166  164 1 
    68  164  161 1 
    69  164  165 1 
    70  117  114 1 
    71  117  119 1 
    72  161  163 1 
    73  161  158 1 
    74  195  197 1 
    75  195  192 1 
    76  195  196 1 
    77  194  192 1 
    78  277  276 1 
    79   69   68 1 
    80  192  189 1 
    81  281  279 1 
    82   68   70 1 
    83   68   65 1 
    84  114  115 1 
    85  114  111 1 
    86  279  276 1 
    87  279  280 1 
    88  156  155 1 
    89   66   65 1 
    90  112  111 1 
    91  187  186 1 
    92  276  278 1 
    93  276  273 1 
    94  160  158 1 
    95   67   65 1 
    96   65   63 1 
    97  158  155 1 
    98  158  159 1 
    99  111  108 1 
   100  111  113 1 
   101  110  108 1 
   102  155  157 1 
   103  155  152 1 
   104  272  270 1 
   105  189  191 1 
   106  189  186 1 
   107  189  190 1 
   108  188  186 1 
   109  186  183 1 
   110  150  149 1 
   111  108  109 1 
   112  108  105 1 
   113  106  105 1 
   114  275  273 1 
   115  151  149 1 
   116  273  270 1 
   117  273  274 1 
   118  268  267 1 
   119  270  267 1 
   120  270  271 1 
   121  266  264 1 
   122   63   62 1 
   123   63   64 2 
   124  149  152 1 
   125  149  146 1 
   126  241  239 1 
   127  152  154 1 
   128  152  153 1 
   129  181  180 1 
   130  185  183 1 
   131  105  107 1 
   132  105  102 1 
   133   62   60 1 
   134  183  180 1 
   135  183  184 1 
   136  267  264 1 
   137  267  269 1 
   138  144  143 1 
   139  145  143 1 
   140  264  265 1 
   141  264  261 1 
   142  262  261 1 
   143  180  182 1 
   144  180  177 1 
   145  242  239 1 
   146  235  233 1 
   147  239  240 1 
   148  239  236 1 
   149  136  135 2 
   150  143  146 1 
   151  143  140 1 
   152  237  236 1 
   153  146  148 1 
   154  146  147 1 
   155  104  102 1 
   156  100   99 1 
   157  102   99 1 
   158  102  103 1 
   159   29   27 1 
   160  261  263 1 
   161  261  258 1 
   162  260  258 1 
   163   60   99 1 
   164   60   27 1 
   165   60   61 1 
   166  236  233 1 
   167  236  238 1 
   168  179  177 1 
   169  133  132 1 
   170   28   27 1 
   171  233  234 1 
   172  233  230 1 
   173  138  137 1 
   174   99  101 1 
   175  251  250 1 
   176  177  132 1 
   177  177  178 1 
   178  135  137 1 
   179  135  134 1 
   180   27   25 1 
   181  256  255 1 
   182  229  227 1 
   183  258  255 1 
   184  258  259 1 
   185  250  248 1 
   186  231  230 1 
   187  137  140 1 
   188  137  139 1 
   189  140  141 1 
   190  140  142 1 
   191  132  134 1 
   192  132  129 1 
   193  249  248 1 
   194  128  127 2 
   195  230  227 1 
   196  230  232 1 
   197  228  227 1 
   198  255  257 1 
   199  255  252 1 
   200  227  224 1 
   201   21   18 2 
   202  248  252 1 
   203  248  245 1 
   204   25   23 1 
   205   25   26 2 
   206   23   22 1 
   207  246  245 1 
   208  127  129 1 
   209  127   32 am
   210   19   18 1 
   211  222  221 1 
   212  129  130 1 
   213  129  131 1 
   214  252  253 1 
   215  252  254 1 
   216  223  221 1 
   217   31   30 1 
   218  245  243 1 
   219  245  247 1 
   220   18   20 1 
   221   18   17 1 
   222  244  243 2 
   223   16   15 1 
   224  221  224 1 
   225  221  218 1 
   226  224  226 1 
   227  224  225 1 
   228  243   58 am
   229   32   30 1 
   230   32   33 1 
   231   22   30 1 
   232   22   15 1 
   233   22   24 1 
   234   30    9 1 
   235   42   41 1 
   236   57   56 1 
   237   15   17 1 
   238   15    6 1 
   239  217  215 1 
   240   45   47 2 
   241  216  215 1 
   242    5    4 1 
   243   58   56 1 
   244   58   59 1 
   245  218  215 1 
   246  218  219 1 
   247  218  220 1 
   248  215  211 1 
   249   56   41 1 
   250   56   48 1 
   251   41   40 1 
   252   41   43 1 
   253   11    9 1 
   254   11   12 1 
   255   40   38 1 
   256    9    7 1 
   257    9   10 1 
   258    7    6 1 
   259   35   34 1 
   260    6    4 1 
   261    6    8 1 
   262    4    1 1 
   263    4    2 1 
   264   54   53 1 
   265   46   47 1 
   266   47   43 1 
   267   47   44 1 
   268   13   12 1 
   269   52   51 2 
   270   51   50 1 
   271   51   53 1 
   272   12   38 1 
   273   12   14 1 
   274   50   48 1 
   275   48   34 1 
   276   48   49 1 
   277   38   34 1 
   278   38   39 1 
   279   34   36 1 
   280  211   53 1 
   281  211  212 1 
   282  211  213 1 
   283   53   55 1 
   284    3    2 1 
   285  214  213 1 
   286   37   36 1 
