@<TRIPOS>MOLECULE
C:\Users\Praveer\PycharmProjects\pdb_to_mol2_converter\data\pdb\yopa.pdb
  114   113     0     0     0
SMALL
GASTEIGER

@<TRIPOS>ATOM
      1 P           1.2710    1.5070   -0.1440 P.3       1 YOP1        0.0000
      2 O13         0.6250    2.1210    1.0270 O.3       1 YOP1        0.0000
      3 O14         0.7840    1.8450   -1.4900 O.2       1 YOP1        0.0000
      4 O12         0.9160   -0.0150   -0.0000 O.3       1 YOP1        0.0000
      5 H12        -0.0430   -0.0630   -0.0340 H         1 YOP1        0.0000
      6 O11         2.8460    1.5740   -0.0560 O.3       1 YOP1        0.0000
      7 C1          3.6730    1.1000   -1.1220 C.3       1 YOP1        0.0000
      8 HA          4.1640    1.9630   -1.6250 H         1 YOP1        0.0000
      9 HB          3.1020    0.5420   -1.9050 H         1 YOP1        0.0000
     10 C2          4.7710    0.1540   -0.5800 C.3       1 YOP1        0.0000
     11 HS          5.4640    0.7710    0.0410 H         1 YOP1        0.0000
     12 O21         5.4240   -0.4300   -1.7240 O.3       1 YOP1        0.0000
     13 C21         6.6880   -0.7630   -1.5640 C.2       1 YOP1        0.0000
     14 O22         7.3750   -0.5650   -0.5770 O.2       1 YOP1        0.0000
     15 C22         7.1670   -1.4350   -2.8530 C.3       1 YOP1        0.0000
     16 H2R         7.0490   -0.7050   -3.6800 H         1 YOP1        0.0000
     17 H2S         6.5020   -2.3000   -3.0510 H         1 YOP1        0.0000
     18 C3          4.1580   -0.9540    0.3310 C.3       1 YOP1        0.0000
     19 HX          3.4120   -1.5040   -0.2860 H         1 YOP1        0.0000
     20 HY          3.5830   -0.4720    1.1560 H         1 YOP1        0.0000
     21 O31         5.1450   -1.8900    0.8270 O.3       1 YOP1        0.0000
     22 C31         5.8050   -1.4750    1.9060 C.2       1 YOP1        0.0000
     23 O32         5.5820   -0.4580    2.5350 O.2       1 YOP1        0.0000
     24 C32         6.8940   -2.4930    2.2480 C.3       1 YOP1        0.0000
     25 H2X         7.5230   -2.6320    1.3440 H         1 YOP1        0.0000
     26 H2Y         6.4030   -3.4560    2.4940 H         1 YOP1        0.0000
     27 C23         8.6360   -1.9050   -2.7690 C.3       1 YOP1        0.0000
     28 H3R         8.7490   -2.6270   -1.9280 H         1 YOP1        0.0000
     29 H3S         9.2970   -1.0340   -2.5560 H         1 YOP1        0.0000
     30 C24         9.1020   -2.5790   -4.0660 C.3       1 YOP1        0.0000
     31 H4R         8.9940   -1.8650   -4.9130 H         1 YOP1        0.0000
     32 H4S         8.4480   -3.4540   -4.2770 H         1 YOP1        0.0000
     33 C25        10.5590   -3.0560   -4.0020 C.3       1 YOP1        0.0000
     34 H5R        10.6810   -3.7470   -3.1380 H         1 YOP1        0.0000
     35 H5S        11.2280   -2.1830   -3.8340 H         1 YOP1        0.0000
     36 C26        10.9850   -3.7820   -5.2860 C.3       1 YOP1        0.0000
     37 H6R        10.8660   -3.0930   -6.1530 H         1 YOP1        0.0000
     38 H6S        10.3110   -4.6520   -5.4500 H         1 YOP1        0.0000
     39 C27        12.4360   -4.2780   -5.2370 C.3       1 YOP1        0.0000
     40 H7R        12.5560   -4.9360   -4.3460 H         1 YOP1        0.0000
     41 H7S        13.1100   -3.4010   -5.1060 H         1 YOP1        0.0000
     42 C28        12.8350   -5.0500   -6.5080 C.3       1 YOP1        0.0000
     43 H8R        12.6690   -4.3830   -7.3830 H         1 YOP1        0.0000
     44 H8S        12.1490   -5.9180   -6.6270 H         1 YOP1        0.0000
     45 C29        14.2640   -5.5270   -6.4130 C.2       1 YOP1        0.0000
     46 H9R        14.4770   -6.1560   -5.5340 H         1 YOP1        0.0000
     47 C210       15.2720   -5.2260   -7.2520 C.2       1 YOP1        0.0000
     48 H10R       16.2750   -5.6290   -7.0400 H         1 YOP1        0.0000
     49 C211       15.1790   -4.3790   -8.4970 C.3       1 YOP1        0.0000
     50 H11R       14.1740   -4.4620   -8.9690 H         1 YOP1        0.0000
     51 H11S       15.9110   -4.7380   -9.2530 H         1 YOP1        0.0000
     52 C212       15.4550   -2.8920   -8.2110 C.3       1 YOP1        0.0000
     53 H12R       16.4680   -2.7730   -7.7660 H         1 YOP1        0.0000
     54 H12S       14.7130   -2.5140   -7.4710 H         1 YOP1        0.0000
     55 C213       15.3650   -2.0320   -9.4800 C.3       1 YOP1        0.0000
     56 H13R       14.3580   -2.1660   -9.9360 H         1 YOP1        0.0000
     57 H13S       16.1200   -2.3870  -10.2170 H         1 YOP1        0.0000
     58 C214       15.5930   -0.5410   -9.2010 C.3       1 YOP1        0.0000
     59 H14R       16.5990   -0.4030   -8.7470 H         1 YOP1        0.0000
     60 H14S       14.8370   -0.1910   -8.4620 H         1 YOP1        0.0000
     61 C215       15.4890    0.3190  -10.4680 C.3       1 YOP1        0.0000
     62 H15R       14.4870    0.1670  -10.9290 H         1 YOP1        0.0000
     63 H15S       16.2540   -0.0200  -11.2030 H         1 YOP1        0.0000
     64 C216       15.6890    1.8130  -10.1840 C.3       1 YOP1        0.0000
     65 H16R       16.6900    1.9660   -9.7220 H         1 YOP1        0.0000
     66 H16S       14.9240    2.1490   -9.4490 H         1 YOP1        0.0000
     67 C217       15.5840    2.6770  -11.4470 C.3       1 YOP1        0.0000
     68 H17R       14.5860    2.5100  -11.9130 H         1 YOP1        0.0000
     69 H17S       16.3530    2.3390  -12.1780 H         1 YOP1        0.0000
     70 C218       15.7680    4.1730  -11.1770 C.3       1 YOP1        0.0000
     71 H18R       16.7670    4.3670  -10.7310 H         1 YOP1        0.0000
     72 H18S       14.9920    4.5380  -10.4700 H         1 YOP1        0.0000
     73 H18T       15.6850    4.7530  -12.1210 H         1 YOP1        0.0000
     74 C33         7.7660   -2.0140    3.4290 C.3       1 YOP1        0.0000
     75 H3X         7.1230   -1.8490    4.3250 H         1 YOP1        0.0000
     76 H3Y         8.2310   -1.0340    3.1660 H         1 YOP1        0.0000
     77 C34         8.8800   -3.0020    3.7950 C.3       1 YOP1        0.0000
     78 H4X         9.5270   -3.1740    2.9050 H         1 YOP1        0.0000
     79 H4Y         8.4290   -3.9780    4.0830 H         1 YOP1        0.0000
     80 C35         9.7420   -2.4820    4.9530 C.3       1 YOP1        0.0000
     81 H5X         9.0890   -2.3070    5.8380 H         1 YOP1        0.0000
     82 H5Y        10.1870   -1.5020    4.6650 H         1 YOP1        0.0000
     83 C36        10.8670   -3.4460    5.3480 C.3       1 YOP1        0.0000
     84 H6X        11.5460   -3.5970    4.4790 H         1 YOP1        0.0000
     85 H6Y        10.4260   -4.4340    5.6090 H         1 YOP1        0.0000
     86 C37        11.6800   -2.9290    6.5430 C.3       1 YOP1        0.0000
     87 H7X        10.9820   -2.7510    7.3930 H         1 YOP1        0.0000
     88 H7Y        12.1380   -1.9510    6.2700 H         1 YOP1        0.0000
     89 C38        12.7810   -3.9150    6.9730 C.3       1 YOP1        0.0000
     90 H8X        13.4480   -4.0790    6.0990 H         1 YOP1        0.0000
     91 H8Y        12.3020   -4.8930    7.2010 H         1 YOP1        0.0000
     92 C39        13.5300   -3.4200    8.1870 C.2       1 YOP1        0.0000
     93 H9X        12.8940   -3.2380    9.0670 H         1 YOP1        0.0000
     94 C310       14.8500   -3.1700    8.2870 C.2       1 YOP1        0.0000
     95 H10X       15.2410   -2.7990    9.2480 H         1 YOP1        0.0000
     96 C311       15.8960   -3.3340    7.2120 C.3       1 YOP1        0.0000
     97 H11X       15.5210   -3.9190    6.3440 H         1 YOP1        0.0000
     98 H11Y       16.7680   -3.8940    7.6160 H         1 YOP1        0.0000
     99 C312       16.3860   -1.9700    6.6970 C.3       1 YOP1        0.0000
    100 H12X       16.8030   -1.3750    7.5410 H         1 YOP1        0.0000
    101 H12Y       15.5270   -1.4020    6.2730 H         1 YOP1        0.0000
    102 C313       17.4650   -2.1080    5.6140 C.3       1 YOP1        0.0000
    103 H13X       17.0510   -2.6850    4.7570 H         1 YOP1        0.0000
    104 H13Y       18.3240   -2.6840    6.0270 H         1 YOP1        0.0000
    105 C314       17.9670   -0.7480    5.1120 C.3       1 YOP1        0.0000
    106 H14X       18.3760   -0.1710    5.9710 H         1 YOP1        0.0000
    107 H14Y       17.1090   -0.1730    4.6980 H         1 YOP1        0.0000
    108 C315       19.0510   -0.8770    4.0350 C.3       1 YOP1        0.0000
    109 H15X       18.6380   -1.4540    3.1760 H         1 YOP1        0.0000
    110 H15Y       19.9030   -1.4630    4.4510 H         1 YOP1        0.0000
    111 C316       19.5660    0.4750    3.5360 C.3       1 YOP1        0.0000
    112 H16X       20.0070    1.0550    4.3740 H         1 YOP1        0.0000
    113 H16Y       18.7350    1.0680    3.0980 H         1 YOP1        0.0000
    114 H16Z       20.3460    0.3330    2.7570 H         1 YOP1        0.0000
@<TRIPOS>BOND
     1   69   67 1 
     2   73   70 1 
     3   68   67 1 
     4   67   70 1 
     5   67   64 1 
     6   63   61 1 
     7   70   71 1 
     8   70   72 1 
     9   62   61 1 
    10   61   64 1 
    11   61   58 1 
    12   57   55 1 
    13   64   65 1 
    14   64   66 1 
    15   56   55 1 
    16   55   58 1 
    17   55   52 1 
    18   51   49 1 
    19   58   59 1 
    20   58   60 1 
    21   50   49 1 
    22   49   52 1 
    23   49   47 1 
    24   52   53 1 
    25   52   54 1 
    26   43   42 1 
    27   47   48 1 
    28   47   45 2 
    29   44   42 1 
    30   42   45 1 
    31   42   39 1 
    32   45   46 1 
    33   37   36 1 
    34   38   36 1 
    35   36   39 1 
    36   36   33 1 
    37   39   41 1 
    38   39   40 1 
    39   31   30 1 
    40   32   30 1 
    41   30   33 1 
    42   30   27 1 
    43   33   35 1 
    44   33   34 1 
    45   16   15 1 
    46   17   15 1 
    47   15   27 1 
    48   15   13 1 
    49   27   29 1 
    50   27   28 1 
    51    9    7 1 
    52   12   13 1 
    53   12   10 1 
    54    8    7 1 
    55   13   14 2 
    56    3    1 2 
    57    7   10 1 
    58    7    6 1 
    59   10   11 1 
    60   10   18 1 
    61   19   18 1 
    62    1    6 1 
    63    1    4 1 
    64    1    2 1 
    65    5    4 1 
    66   18   21 1 
    67   18   20 1 
    68   21   22 1 
    69   25   24 1 
    70   22   24 1 
    71   22   23 2 
    72   24   26 1 
    73   24   74 1 
    74  114  111 1 
    75   78   77 1 
    76  113  111 1 
    77   76   74 1 
    78  109  108 1 
    79   74   77 1 
    80   74   75 1 
    81  111  108 1 
    82  111  112 1 
    83   77   79 1 
    84   77   80 1 
    85  108  110 1 
    86  108  105 1 
    87   84   83 1 
    88   82   80 1 
    89  107  105 1 
    90  103  102 1 
    91   80   83 1 
    92   80   81 1 
    93  105  102 1 
    94  105  106 1 
    95   83   85 1 
    96   83   86 1 
    97  102  104 1 
    98  102   99 1 
    99   90   89 1 
   100   88   86 1 
   101  101   99 1 
   102   97   96 1 
   103   86   89 1 
   104   86   87 1 
   105   99   96 1 
   106   99  100 1 
   107   89   91 1 
   108   89   92 1 
   109   96   98 1 
   110   96   94 1 
   111   92   94 2 
   112   92   93 1 
   113   94   95 1 
