@<TRIPOS>MOLECULE
C:\Users\Praveer\PycharmProjects\pdb_to_mol2_converter\data\pdb\yopc.pdb
  132   131     0     0     0
SMALL
GASTEIGER

@<TRIPOS>ATOM
      1 N           1.4610   -0.0280   -0.0400 N.4       1 YOP1        0.0000
      2 C12         2.1670    1.3140    0.0460 C.3       1 YOP1        0.0000
      3 H12A        2.0970    1.8800   -0.8730 H         1 YOP1        0.0000
      4 H12B        3.2400    1.1150    0.1640 H         1 YOP1        0.0000
      5 C13        -0.0230    0.1450   -0.1160 C.3       1 YOP1        0.0000
      6 H13A       -0.3020    0.7050   -0.9990 H         1 YOP1        0.0000
      7 H13B       -0.3730    0.6970    0.7520 H         1 YOP1        0.0000
      8 H13C       -0.5230   -0.8140   -0.1350 H         1 YOP1        0.0000
      9 C14         1.9730   -0.7680   -1.2380 C.3       1 YOP1        0.0000
     10 H14A        3.0520   -0.8860   -1.1600 H         1 YOP1        0.0000
     11 H14B        1.7640   -0.2240   -2.1500 H         1 YOP1        0.0000
     12 H14C        1.5290   -1.7520   -1.3060 H         1 YOP1        0.0000
     13 C15         1.8290   -0.8070    1.1930 C.3       1 YOP1        0.0000
     14 H15A        1.4370   -0.3230    2.0820 H         1 YOP1        0.0000
     15 H15B        2.9170   -0.7800    1.3360 H         1 YOP1        0.0000
     16 H15C        1.4960   -1.8290    1.1580 H         1 YOP1        0.0000
     17 C11         1.8070    2.2060    1.2460 C.3       1 YOP1        0.0000
     18 H11A        1.2800    1.6620    2.0630 H         1 YOP1        0.0000
     19 H11B        1.1260    3.0190    0.9100 H         1 YOP1        0.0000
     20 P           4.0360    1.8760    2.5480 P.3       1 YOP1        0.0000
     21 O13         3.4590    1.6300    3.8820 O.3       1 YOP1        0.0000
     22 O14         4.3590    0.6870    1.7210 O.2       1 YOP1        0.0000
     23 O12         3.0130    2.7780    1.7270 O.3       1 YOP1        0.0000
     24 O11         5.3080    2.8020    2.6430 O.3       1 YOP1        0.0000
     25 C1          5.3240    4.1890    2.3140 C.3       1 YOP1        0.0000
     26 HA          6.0470    4.6750    3.0090 H         1 YOP1        0.0000
     27 HB          4.3480    4.7000    2.4830 H         1 YOP1        0.0000
     28 C2          5.8150    4.4350    0.8580 C.3       1 YOP1        0.0000
     29 HS          6.3000    3.4880    0.5160 H         1 YOP1        0.0000
     30 O21         6.7500    5.5310    0.8990 O.3       1 YOP1        0.0000
     31 C21         7.6740    5.5390   -0.0460 C.2       1 YOP1        0.0000
     32 O22         7.8550    4.6790   -0.8900 O.2       1 YOP1        0.0000
     33 C22         8.4940    6.8260    0.0960 C.3       1 YOP1        0.0000
     34 H2R         8.9580    6.8230    1.1040 H         1 YOP1        0.0000
     35 H2S         7.7920    7.6830    0.0340 H         1 YOP1        0.0000
     36 C3          4.6350    4.7650   -0.1080 C.3       1 YOP1        0.0000
     37 HX          4.1830    5.7120    0.2600 H         1 YOP1        0.0000
     38 HY          3.8480    3.9870   -0.0260 H         1 YOP1        0.0000
     39 O31         5.0700    4.9580   -1.4700 O.3       1 YOP1        0.0000
     40 C31         5.0250    3.8820   -2.2490 C.2       1 YOP1        0.0000
     41 O32         4.4770    2.8240   -1.9770 O.2       1 YOP1        0.0000
     42 C32         5.7140    4.2120   -3.5730 C.3       1 YOP1        0.0000
     43 H2X         6.5930    4.8550   -3.3510 H         1 YOP1        0.0000
     44 H2Y         4.9950    4.7910   -4.1870 H         1 YOP1        0.0000
     45 C23         9.5900    6.9760   -0.9850 C.3       1 YOP1        0.0000
     46 H3R         9.1300    6.9230   -1.9990 H         1 YOP1        0.0000
     47 H3S        10.3160    6.1350   -0.9030 H         1 YOP1        0.0000
     48 C24        10.3460    8.3070   -0.8610 C.3       1 YOP1        0.0000
     49 H4R        10.8100    8.3730    0.1490 H         1 YOP1        0.0000
     50 H4S         9.6190    9.1450   -0.9540 H         1 YOP1        0.0000
     51 C25        11.4380    8.4770   -1.9260 C.3       1 YOP1        0.0000
     52 H5R        10.9810    8.3700   -2.9350 H         1 YOP1        0.0000
     53 H5S        12.1910    7.6650   -1.8090 H         1 YOP1        0.0000
     54 C26        12.1470    9.8370   -1.8430 C.3       1 YOP1        0.0000
     55 H6R        12.6050    9.9520   -0.8350 H         1 YOP1        0.0000
     56 H6S        11.3940   10.6470   -1.9670 H         1 YOP1        0.0000
     57 C27        13.2400   10.0030   -2.9110 C.3       1 YOP1        0.0000
     58 H7R        12.7820    9.8500   -3.9140 H         1 YOP1        0.0000
     59 H7S        14.0070    9.2100   -2.7610 H         1 YOP1        0.0000
     60 C28        13.9150   11.3870   -2.8570 C.3       1 YOP1        0.0000
     61 H8R        14.3240   11.5260   -1.8310 H         1 YOP1        0.0000
     62 H8S        13.1350   12.1670   -3.0020 H         1 YOP1        0.0000
     63 C29        14.9820   11.5240   -3.9180 C.2       1 YOP1        0.0000
     64 H9R        14.6250   11.3730   -4.9490 H         1 YOP1        0.0000
     65 C210       16.2890   11.7770   -3.7170 C.2       1 YOP1        0.0000
     66 H10R       16.9580   11.8310   -4.5900 H         1 YOP1        0.0000
     67 C211       16.9610   12.0110   -2.3870 C.3       1 YOP1        0.0000
     68 H11R       16.2660   12.4900   -1.6610 H         1 YOP1        0.0000
     69 H11S       17.8150   12.7130   -2.5120 H         1 YOP1        0.0000
     70 C212       17.4850   10.7050   -1.7610 C.3       1 YOP1        0.0000
     71 H12R       18.2120   10.2210   -2.4510 H         1 YOP1        0.0000
     72 H12S       16.6350   10.0000   -1.6130 H         1 YOP1        0.0000
     73 C213       18.1680   10.9420   -0.4060 C.3       1 YOP1        0.0000
     74 H13R       17.4480   11.4430    0.2800 H         1 YOP1        0.0000
     75 H13S       19.0330   11.6280   -0.5490 H         1 YOP1        0.0000
     76 C214       18.6580    9.6430    0.2480 C.3       1 YOP1        0.0000
     77 H14R       19.3750    9.1370   -0.4360 H         1 YOP1        0.0000
     78 H14S       17.7910    8.9610    0.3940 H         1 YOP1        0.0000
     79 C215       19.3390    9.8880    1.6010 C.3       1 YOP1        0.0000
     80 H15R       18.6270   10.4130    2.2770 H         1 YOP1        0.0000
     81 H15S       20.2180   10.5550    1.4510 H         1 YOP1        0.0000
     82 C216       19.8030    8.5890    2.2760 C.3       1 YOP1        0.0000
     83 H16R       20.5100    8.0580    1.6000 H         1 YOP1        0.0000
     84 H16S       18.9230    7.9260    2.4330 H         1 YOP1        0.0000
     85 C217       20.4900    8.8380    3.6250 C.3       1 YOP1        0.0000
     86 H17R       19.7840    9.3840    4.2910 H         1 YOP1        0.0000
     87 H17S       21.3720    9.4980    3.4610 H         1 YOP1        0.0000
     88 C218       20.9450    7.5520    4.3200 C.3       1 YOP1        0.0000
     89 H18R       21.6670    6.9990    3.6820 H         1 YOP1        0.0000
     90 H18S       20.0760    6.8900    4.5200 H         1 YOP1        0.0000
     91 H18T       21.4390    7.7860    5.2880 H         1 YOP1        0.0000
     92 C33         6.1810    2.9590   -4.3460 C.3       1 YOP1        0.0000
     93 H3X         5.3200    2.2750   -4.5170 H         1 YOP1        0.0000
     94 H3Y         6.9370    2.4080   -3.7400 H         1 YOP1        0.0000
     95 C34         6.8000    3.3270   -5.7020 C.3       1 YOP1        0.0000
     96 H4X         7.6710    4.0000   -5.5380 H         1 YOP1        0.0000
     97 H4Y         6.0480    3.8890   -6.3020 H         1 YOP1        0.0000
     98 C35         7.2570    2.1020   -6.5070 C.3       1 YOP1        0.0000
     99 H5X         6.3910    1.4160   -6.6450 H         1 YOP1        0.0000
    100 H5Y         8.0370    1.5530   -5.9320 H         1 YOP1        0.0000
    101 C36         7.8170    2.4820   -7.8860 C.3       1 YOP1        0.0000
    102 H6X         8.7150    3.1260   -7.7530 H         1 YOP1        0.0000
    103 H6Y         7.0520    3.0780   -8.4330 H         1 YOP1        0.0000
    104 C37         8.1910    1.2590   -8.7370 C.3       1 YOP1        0.0000
    105 H7X         7.2890    0.6140   -8.8390 H         1 YOP1        0.0000
    106 H7Y         8.9720    0.6710   -8.2020 H         1 YOP1        0.0000
    107 C38         8.7080    1.6540  -10.1330 C.3       1 YOP1        0.0000
    108 H8X         9.6110    2.2880   -9.9940 H         1 YOP1        0.0000
    109 H8Y         7.9400    2.2930  -10.6230 H         1 YOP1        0.0000
    110 C39         8.9820    0.4410  -10.9910 C.2       1 YOP1        0.0000
    111 H9X         8.1080   -0.2110  -11.1420 H         1 YOP1        0.0000
    112 C310       10.1510    0.0860  -11.5550 C.2       1 YOP1        0.0000
    113 H10X       10.1880   -0.8430  -12.1460 H         1 YOP1        0.0000
    114 C311       11.4670    0.8230  -11.4770 C.3       1 YOP1        0.0000
    115 H11X       11.3430    1.8650  -11.1080 H         1 YOP1        0.0000
    116 H11Y       11.9150    0.9020  -12.4920 H         1 YOP1        0.0000
    117 C312       12.4670    0.1030  -10.5550 C.3       1 YOP1        0.0000
    118 H12X       12.6380   -0.9340  -10.9230 H         1 YOP1        0.0000
    119 H12Y       12.0410    0.0340   -9.5280 H         1 YOP1        0.0000
    120 C313       13.8200    0.8260  -10.4800 C.3       1 YOP1        0.0000
    121 H13X       13.6590    1.8590  -10.0970 H         1 YOP1        0.0000
    122 H13Y       14.2470    0.9070  -11.5040 H         1 YOP1        0.0000
    123 C314       14.8250    0.1040   -9.5730 C.3       1 YOP1        0.0000
    124 H14X       14.9840   -0.9290   -9.9560 H         1 YOP1        0.0000
    125 H14Y       14.3980    0.0220   -8.5480 H         1 YOP1        0.0000
    126 C315       16.1780    0.8220   -9.4960 C.3       1 YOP1        0.0000
    127 H15X       16.0140    1.8550   -9.1110 H         1 YOP1        0.0000
    128 H15Y       16.5950    0.9120  -10.5250 H         1 YOP1        0.0000
    129 C316       17.1940    0.1070   -8.6020 C.3       1 YOP1        0.0000
    130 H16X       17.3930   -0.9180   -8.9840 H         1 YOP1        0.0000
    131 H16Y       16.8090    0.0260   -7.5630 H         1 YOP1        0.0000
    132 H16Z       18.1550    0.6660   -8.5790 H         1 YOP1        0.0000
@<TRIPOS>BOND
     1  116  114 1 
     2  113  112 1 
     3  112  114 1 
     4  112  110 2 
     5  122  120 1 
     6  114  115 1 
     7  114  117 1 
     8  111  110 1 
     9  110  107 1 
    10  118  117 1 
    11  109  107 1 
    12  117  120 1 
    13  117  119 1 
    14  128  126 1 
    15  120  121 1 
    16  120  123 1 
    17  107  108 1 
    18  107  104 1 
    19  124  123 1 
    20  123  126 1 
    21  123  125 1 
    22  126  127 1 
    23  126  129 1 
    24  130  129 1 
    25  105  104 1 
    26  104  106 1 
    27  104  101 1 
    28  129  132 1 
    29  129  131 1 
    30  103  101 1 
    31  101  102 1 
    32  101   98 1 
    33   99   98 1 
    34   98  100 1 
    35   98   95 1 
    36   97   95 1 
    37   95   96 1 
    38   95   92 1 
    39   64   63 1 
    40   66   65 1 
    41   93   92 1 
    42   92   94 1 
    43   92   42 1 
    44   44   42 1 
    45   63   65 2 
    46   63   60 1 
    47   58   57 1 
    48   65   67 1 
    49   42   43 1 
    50   42   40 1 
    51   62   60 1 
    52   52   51 1 
    53   57   60 1 
    54   57   59 1 
    55   57   54 1 
    56   60   61 1 
    57   69   67 1 
    58   71   70 1 
    59   67   70 1 
    60   67   68 1 
    61   40   41 2 
    62   40   39 1 
    63   11    9 1 
    64   46   45 1 
    65   56   54 1 
    66   51   54 1 
    67   51   53 1 
    68   51   48 1 
    69   54   55 1 
    70   70   72 1 
    71   70   73 1 
    72   39   36 1 
    73   12    9 1 
    74    9   10 1 
    75    9    1 1 
    76    6    5 1 
    77   45   47 1 
    78   45   48 1 
    79   45   33 1 
    80   50   48 1 
    81   32   31 2 
    82    3    2 1 
    83   48   49 1 
    84   75   73 1 
    85   77   76 1 
    86   73   76 1 
    87   73   74 1 
    88    8    5 1 
    89    5    1 1 
    90    5    7 1 
    91   36   38 1 
    92   36   37 1 
    93   36   28 1 
    94   31   33 1 
    95   31   30 1 
    96    1    2 1 
    97    1   13 1 
    98   35   33 1 
    99    2    4 1 
   100    2   17 1 
   101   33   34 1 
   102   76   78 1 
   103   76   79 1 
   104   29   28 1 
   105   28   30 1 
   106   28   25 1 
   107   19   17 1 
   108   16   13 1 
   109   13   15 1 
   110   13   14 1 
   111   17   23 1 
   112   17   18 1 
   113   81   79 1 
   114   83   82 1 
   115   79   82 1 
   116   79   80 1 
   117   22   20 2 
   118   23   20 1 
   119   82   84 1 
   120   82   85 1 
   121   25   27 1 
   122   25   24 1 
   123   25   26 1 
   124   20   24 1 
   125   20   21 1 
   126   87   85 1 
   127   85   86 1 
   128   85   88 1 
   129   89   88 1 
   130   88   90 1 
   131   88   91 1 
