@<TRIPOS>MOLECULE
C:\Users\Praveer\PycharmProjects\pdb_to_mol2_converter\data\pdb\yope.pdb
  123   122     0     0     0
SMALL
GASTEIGER

@<TRIPOS>ATOM
      1 N           0.0050   -0.0340    0.1620 N.4       1 YOP1        0.0000
      2 HN1        -0.1290   -0.4860    1.1040 H         1 YOP1        0.0000
      3 HN2        -0.5770   -0.5070   -0.5490 H         1 YOP1        0.0000
      4 HN3        -0.3200    0.9740    0.2630 H         1 YOP1        0.0000
      5 C12         1.4750    0.0150   -0.1740 C.3       1 YOP1        0.0000
      6 H12A        1.6070   -0.3540   -1.2110 H         1 YOP1        0.0000
      7 H12B        1.9970   -0.6680    0.5290 H         1 YOP1        0.0000
      8 C11         2.0480    1.4430   -0.0360 C.3       1 YOP1        0.0000
      9 H11A        1.6730    2.0830   -0.8740 H         1 YOP1        0.0000
     10 H11B        3.1530    1.3910   -0.1630 H         1 YOP1        0.0000
     11 P           0.5720    3.0320    1.4310 P.3       1 YOP1        0.0000
     12 O13         1.0700    4.4000    1.2190 O.3       1 YOP1        0.0000
     13 O14        -0.5100    2.5130    0.5590 O.2       1 YOP1        0.0000
     14 O11         0.1530    2.7930    2.9280 O.3       1 YOP1        0.0000
     15 O12         1.7690    2.0010    1.2520 O.3       1 YOP1        0.0000
     16 C1          1.0700    2.5570    3.9930 C.3       1 YOP1        0.0000
     17 HA          0.8390    3.2890    4.8010 H         1 YOP1        0.0000
     18 HB          2.1370    2.7120    3.7120 H         1 YOP1        0.0000
     19 C2          0.8620    1.1330    4.5690 C.3       1 YOP1        0.0000
     20 HS         -0.2080    0.8800    4.3700 H         1 YOP1        0.0000
     21 O21         1.1420    1.1640    5.9810 O.3       1 YOP1        0.0000
     22 C21         0.4840    0.2640    6.6960 C.2       1 YOP1        0.0000
     23 O22        -0.3870   -0.4830    6.2840 O.2       1 YOP1        0.0000
     24 C22         1.0070    0.3010    8.1310 C.3       1 YOP1        0.0000
     25 H2R         0.8730    1.3300    8.5220 H         1 YOP1        0.0000
     26 H2S         2.0920    0.0710    8.0990 H         1 YOP1        0.0000
     27 C3          1.7710    0.0850    3.8610 C.3       1 YOP1        0.0000
     28 HX          2.8190    0.3040    4.1650 H         1 YOP1        0.0000
     29 HY          1.7260    0.2350    2.7640 H         1 YOP1        0.0000
     30 O31         1.4470   -1.2700    4.2350 O.3       1 YOP1        0.0000
     31 C31         0.4600   -1.8310    3.5460 C.2       1 YOP1        0.0000
     32 O32        -0.0330   -1.3800    2.5200 O.2       1 YOP1        0.0000
     33 C32         0.0840   -3.1560    4.2060 C.3       1 YOP1        0.0000
     34 H2X         0.0740   -3.0010    5.3060 H         1 YOP1        0.0000
     35 H2Y         0.8740   -3.8950    3.9600 H         1 YOP1        0.0000
     36 C23         0.2860   -0.7140    9.0450 C.3       1 YOP1        0.0000
     37 H3R         0.3650   -1.7370    8.6090 H         1 YOP1        0.0000
     38 H3S        -0.7970   -0.4600    9.1070 H         1 YOP1        0.0000
     39 C24         0.8760   -0.7420   10.4610 C.3       1 YOP1        0.0000
     40 H4R         0.8150    0.2760   10.9070 H         1 YOP1        0.0000
     41 H4S         1.9520   -1.0220   10.4010 H         1 YOP1        0.0000
     42 C25         0.1510   -1.7360   11.3780 C.3       1 YOP1        0.0000
     43 H5R         0.1780   -2.7470   10.9120 H         1 YOP1        0.0000
     44 H5S        -0.9170   -1.4350   11.4700 H         1 YOP1        0.0000
     45 C26         0.7750   -1.8160   12.7780 C.3       1 YOP1        0.0000
     46 H6R         0.7570   -0.8070   13.2470 H         1 YOP1        0.0000
     47 H6S         1.8390   -2.1270   12.6840 H         1 YOP1        0.0000
     48 C27         0.0400   -2.8080   13.6910 C.3       1 YOP1        0.0000
     49 H7R         0.0300   -3.8060   13.1980 H         1 YOP1        0.0000
     50 H7S        -1.0160   -2.4730   13.8030 H         1 YOP1        0.0000
     51 C28         0.6940   -2.9230   15.0810 C.3       1 YOP1        0.0000
     52 H8R         0.7270   -1.9020   15.5240 H         1 YOP1        0.0000
     53 H8S         1.7480   -3.2520   14.9500 H         1 YOP1        0.0000
     54 C29        -0.0470   -3.9020   15.9600 C.2       1 YOP1        0.0000
     55 H9R        -0.1270   -4.9200   15.5470 H         1 YOP1        0.0000
     56 C210       -0.6230   -3.6390   17.1490 C.2       1 YOP1        0.0000
     57 H10R       -1.1480   -4.4520   17.6740 H         1 YOP1        0.0000
     58 C211       -0.6210   -2.3140   17.8690 C.3       1 YOP1        0.0000
     59 H11R        0.3010   -1.7320   17.6450 H         1 YOP1        0.0000
     60 H11S       -0.6260   -2.4800   18.9690 H         1 YOP1        0.0000
     61 C212       -1.8380   -1.4480   17.4950 C.3       1 YOP1        0.0000
     62 H12R       -2.7780   -1.9910   17.7410 H         1 YOP1        0.0000
     63 H12S       -1.8320   -1.2580   16.3970 H         1 YOP1        0.0000
     64 C213       -1.8390   -0.0980   18.2270 C.3       1 YOP1        0.0000
     65 H13R       -0.8920    0.4400   17.9970 H         1 YOP1        0.0000
     66 H13S       -1.8680   -0.2780   19.3250 H         1 YOP1        0.0000
     67 C214       -3.0250    0.7910   17.8310 C.3       1 YOP1        0.0000
     68 H14R       -3.9750    0.2570   18.0560 H         1 YOP1        0.0000
     69 H14S       -2.9910    0.9740   16.7330 H         1 YOP1        0.0000
     70 C215       -3.0200    2.1400   18.5640 C.3       1 YOP1        0.0000
     71 H15R       -2.0610    2.6640   18.3540 H         1 YOP1        0.0000
     72 H15S       -3.0730    1.9570   19.6610 H         1 YOP1        0.0000
     73 C216       -4.1870    3.0460   18.1480 C.3       1 YOP1        0.0000
     74 H16R       -5.1480    2.5220   18.3500 H         1 YOP1        0.0000
     75 H16S       -4.1290    3.2340   17.0520 H         1 YOP1        0.0000
     76 C217       -4.1830    4.3900   18.8870 C.3       1 YOP1        0.0000
     77 H17R       -3.2130    4.9030   18.6950 H         1 YOP1        0.0000
     78 H17S       -4.2460    4.1960   19.9820 H         1 YOP1        0.0000
     79 C218       -5.3310    5.3150   18.4730 C.3       1 YOP1        0.0000
     80 H18R       -6.3110    4.8320   18.6750 H         1 YOP1        0.0000
     81 H18S       -5.2710    5.5450   17.3870 H         1 YOP1        0.0000
     82 H18T       -5.2870    6.2700   19.0380 H         1 YOP1        0.0000
     83 C33        -1.2950   -3.6850    3.7520 C.3       1 YOP1        0.0000
     84 H3X        -1.3130   -3.8120    2.6460 H         1 YOP1        0.0000
     85 H3Y        -2.0850   -2.9470    4.0240 H         1 YOP1        0.0000
     86 C34        -1.6310   -5.0310    4.4090 C.3       1 YOP1        0.0000
     87 H4X        -1.6240   -4.9100    5.5160 H         1 YOP1        0.0000
     88 H4Y        -0.8420   -5.7710    4.1450 H         1 YOP1        0.0000
     89 C35        -2.9950   -5.5860    3.9770 C.3       1 YOP1        0.0000
     90 H5X        -3.0130   -5.6840    2.8680 H         1 YOP1        0.0000
     91 H5Y        -3.7960   -4.8700    4.2670 H         1 YOP1        0.0000
     92 C36        -3.2900   -6.9570    4.6030 C.3       1 YOP1        0.0000
     93 H6X        -3.3250   -6.8550    5.7100 H         1 YOP1        0.0000
     94 H6Y        -2.4580   -7.6530    4.3540 H         1 YOP1        0.0000
     95 C37        -4.6090   -7.5700    4.1090 C.3       1 YOP1        0.0000
     96 H7X        -4.5700   -7.6410    2.9980 H         1 YOP1        0.0000
     97 H7Y        -5.4490   -6.8890    4.3770 H         1 YOP1        0.0000
     98 C38        -4.8640   -8.9640    4.7120 C.3       1 YOP1        0.0000
     99 H8X        -4.9060   -8.8530    5.8180 H         1 YOP1        0.0000
    100 H8Y        -3.9850   -9.6090    4.4870 H         1 YOP1        0.0000
    101 C39        -6.1140   -9.5970    4.1480 C.2       1 YOP1        0.0000
    102 H9X        -6.1050   -9.7160    3.0530 H         1 YOP1        0.0000
    103 C310       -7.2040  -10.0020    4.8270 C.2       1 YOP1        0.0000
    104 H10X       -8.0430  -10.4360    4.2610 H         1 YOP1        0.0000
    105 C311       -7.4310   -9.9330    6.3180 C.3       1 YOP1        0.0000
    106 H11X       -6.4890   -9.7430    6.8780 H         1 YOP1        0.0000
    107 H11Y       -7.8210  -10.9080    6.6850 H         1 YOP1        0.0000
    108 C312       -8.4390   -8.8310    6.6890 C.3       1 YOP1        0.0000
    109 H12X       -9.4060   -9.0140    6.1680 H         1 YOP1        0.0000
    110 H12Y       -8.0520   -7.8430    6.3480 H         1 YOP1        0.0000
    111 C313       -8.7030   -8.7610    8.2000 C.3       1 YOP1        0.0000
    112 H13X       -7.7430   -8.5620    8.7270 H         1 YOP1        0.0000
    113 H13Y       -9.0820   -9.7480    8.5490 H         1 YOP1        0.0000
    114 C314       -9.7180   -7.6730    8.5730 C.3       1 YOP1        0.0000
    115 H14X      -10.6770   -7.8730    8.0440 H         1 YOP1        0.0000
    116 H14Y       -9.3400   -6.6860    8.2230 H         1 YOP1        0.0000
    117 C315       -9.9840   -7.6020   10.0820 C.3       1 YOP1        0.0000
    118 H15X       -9.0220   -7.4000   10.6060 H         1 YOP1        0.0000
    119 H15Y      -10.3500   -8.5950   10.4280 H         1 YOP1        0.0000
    120 C316      -11.0030   -6.5270   10.4680 C.3       1 YOP1        0.0000
    121 H16X      -11.9800   -6.7230    9.9750 H         1 YOP1        0.0000
    122 H16Y      -10.6480   -5.5230   10.1510 H         1 YOP1        0.0000
    123 H16Z      -11.1600   -6.5130   11.5680 H         1 YOP1        0.0000
@<TRIPOS>BOND
     1    6    5 1 
     2    9    8 1 
     3    3    1 1 
     4    5    8 1 
     5    5    1 1 
     6    5    7 1 
     7   10    8 1 
     8    8   15 1 
     9    1    4 1 
    10    1    2 1 
    11   13   11 2 
    12   12   11 1 
    13   15   11 1 
    14   11   14 1 
    15   32   31 2 
    16   84   83 1 
    17   29   27 1 
    18   90   89 1 
    19   14   16 1 
    20   96   95 1 
    21  102  101 1 
    22   31   33 1 
    23   31   30 1 
    24   18   16 1 
    25   83   85 1 
    26   83   33 1 
    27   83   86 1 
    28   27   28 1 
    29   27   30 1 
    30   27   19 1 
    31   35   33 1 
    32   89   91 1 
    33   89   86 1 
    34   89   92 1 
    35   16   19 1 
    36   16   17 1 
    37   95   97 1 
    38   95   92 1 
    39   95   98 1 
    40   88   86 1 
    41  101   98 1 
    42  101  103 2 
    43   33   34 1 
    44  104  103 1 
    45   94   92 1 
    46   20   19 1 
    47   86   87 1 
    48  100   98 1 
    49   19   21 1 
    50   92   93 1 
    51   98   99 1 
    52  103  105 1 
    53   21   22 1 
    54  109  108 1 
    55   23   22 2 
    56  105  107 1 
    57  105  108 1 
    58  105  106 1 
    59  110  108 1 
    60  108  111 1 
    61   22   24 1 
    62  115  114 1 
    63   26   24 1 
    64   24   25 1 
    65   24   36 1 
    66  111  113 1 
    67  111  114 1 
    68  111  112 1 
    69  116  114 1 
    70  114  117 1 
    71   37   36 1 
    72   36   38 1 
    73   36   39 1 
    74  121  120 1 
    75  117  119 1 
    76  117  120 1 
    77  117  118 1 
    78  122  120 1 
    79   41   39 1 
    80   39   40 1 
    81   39   42 1 
    82  120  123 1 
    83   43   42 1 
    84   42   44 1 
    85   42   45 1 
    86   47   45 1 
    87   45   46 1 
    88   45   48 1 
    89   49   48 1 
    90   48   50 1 
    91   48   51 1 
    92   53   51 1 
    93   51   52 1 
    94   51   54 1 
    95   55   54 1 
    96   54   56 2 
    97   63   61 1 
    98   69   67 1 
    99   75   73 1 
   100   56   57 1 
   101   56   58 1 
   102   81   79 1 
   103   61   62 1 
   104   61   58 1 
   105   61   64 1 
   106   59   58 1 
   107   67   68 1 
   108   67   64 1 
   109   67   70 1 
   110   58   60 1 
   111   65   64 1 
   112   73   74 1 
   113   73   70 1 
   114   73   76 1 
   115   64   66 1 
   116   71   70 1 
   117   79   80 1 
   118   79   76 1 
   119   79   82 1 
   120   70   72 1 
   121   77   76 1 
   122   76   78 1 
