@<TRIPOS>MOLECULE
C:\Users\Praveer\PycharmProjects\pdb_to_mol2_converter\data\pdb\yops.pdb
  125   124     0     0     0
SMALL
GASTEIGER

@<TRIPOS>ATOM
      1 N           0.0880   -0.0820    0.1750 N.4       1 YOP1        0.0000
      2 HN1        -0.3940   -0.7420   -0.4500 H         1 YOP1        0.0000
      3 HN2        -0.3350    0.8870    0.1440 H         1 YOP1        0.0000
      4 HN3         0.0030   -0.4410    1.1620 H         1 YOP1        0.0000
      5 C12         1.5480    0.0210   -0.1190 C.3       1 YOP1        0.0000
      6 H12A        1.6910   -0.2200   -1.1610 H         1 YOP1        0.0000
      7 C13         2.3740   -1.0260    0.6550 C.2       1 YOP1        0.0000
      8 O13A        1.7760   -1.8250    1.4260 O.co2     1 YOP1        0.0000
      9 O13B        3.6110   -1.0670    0.4340 O.co2     1 YOP1        0.0000
     10 C11         2.0690    1.4890    0.1060 C.3       1 YOP1        0.0000
     11 H11A        1.8800    2.0650   -0.8310 H         1 YOP1        0.0000
     12 H11B        3.1780    1.4510    0.2130 H         1 YOP1        0.0000
     13 P           0.2970    3.1480    1.1170 P.3       1 YOP1        0.0000
     14 O13         0.7930    4.4700    0.6950 O.3       1 YOP1        0.0000
     15 O14        -0.6820    2.4520    0.2460 O.2       1 YOP1        0.0000
     16 O12         1.5190    2.1480    1.2580 O.3       1 YOP1        0.0000
     17 O11        -0.2760    3.2050    2.5850 O.3       1 YOP1        0.0000
     18 C1          0.5100    2.9900    3.7570 C.3       1 YOP1        0.0000
     19 HA          0.2450    3.7910    4.4830 H         1 YOP1        0.0000
     20 HB          1.6080    3.0670    3.5820 H         1 YOP1        0.0000
     21 C2          0.1630    1.6270    4.4150 C.3       1 YOP1        0.0000
     22 HS         -0.8790    1.3880    4.0930 H         1 YOP1        0.0000
     23 O21         0.2500    1.7780    5.8470 O.3       1 YOP1        0.0000
     24 C21        -0.5160    0.9510    6.5410 C.2       1 YOP1        0.0000
     25 O22        -1.3810    0.2190    6.0960 O.2       1 YOP1        0.0000
     26 C22        -0.1360    1.0570    8.0180 C.3       1 YOP1        0.0000
     27 H2R        -0.2810    2.1090    8.3360 H         1 YOP1        0.0000
     28 H2S         0.9400    0.8010    8.1090 H         1 YOP1        0.0000
     29 C3          1.1130    0.4880    3.9400 C.3       1 YOP1        0.0000
     30 HX          2.1260    0.7070    4.3410 H         1 YOP1        0.0000
     31 HY          1.2150    0.5060    2.8370 H         1 YOP1        0.0000
     32 O31         0.7000   -0.8120    4.4050 O.3       1 YOP1        0.0000
     33 C31        -0.2420   -1.3860    3.6610 C.2       1 YOP1        0.0000
     34 O32        -0.7680   -0.8980    2.6710 O.2       1 YOP1        0.0000
     35 C32        -0.5810   -2.7460    4.2680 C.3       1 YOP1        0.0000
     36 H2X        -0.6680   -2.6140    5.3660 H         1 YOP1        0.0000
     37 H2Y         0.2680   -3.4280    4.0530 H         1 YOP1        0.0000
     38 C23        -0.9770    0.1110    8.9020 C.3       1 YOP1        0.0000
     39 H3R        -0.8510   -0.9400    8.5520 H         1 YOP1        0.0000
     40 H3S        -2.0570    0.3680    8.8030 H         1 YOP1        0.0000
     41 C24        -0.5820    0.1860   10.3820 C.3       1 YOP1        0.0000
     42 H4R        -0.6920    1.2350   10.7390 H         1 YOP1        0.0000
     43 H4S         0.4890   -0.0980   10.4890 H         1 YOP1        0.0000
     44 C25        -1.4370   -0.7350   11.2640 C.3       1 YOP1        0.0000
     45 H5R        -1.3500   -1.7800   10.8890 H         1 YOP1        0.0000
     46 H5S        -2.5050   -0.4340   11.1760 H         1 YOP1        0.0000
     47 C26        -1.0220   -0.6970   12.7400 C.3       1 YOP1        0.0000
     48 H6R        -1.0990    0.3480   13.1160 H         1 YOP1        0.0000
     49 H6S         0.0430   -1.0100   12.8260 H         1 YOP1        0.0000
     50 C27        -1.8860   -1.6120   13.6200 C.3       1 YOP1        0.0000
     51 H7R        -1.8330   -2.6480   13.2160 H         1 YOP1        0.0000
     52 H7S        -2.9450   -1.2740   13.5530 H         1 YOP1        0.0000
     53 C28        -1.4360   -1.6060   15.0930 C.3       1 YOP1        0.0000
     54 H8R        -1.4600   -0.5510   15.4480 H         1 YOP1        0.0000
     55 H8S        -0.3750   -1.9380   15.1400 H         1 YOP1        0.0000
     56 C29        -2.2980   -2.5110   15.9400 C.2       1 YOP1        0.0000
     57 H9R        -2.3220   -3.5620   15.6100 H         1 YOP1        0.0000
     58 C210       -3.0340   -2.1520   17.0090 C.2       1 YOP1        0.0000
     59 H10R       -3.6320   -2.9200   17.5240 H         1 YOP1        0.0000
     60 C211       -3.1270   -0.7690   17.6040 C.3       1 YOP1        0.0000
     61 H11R       -2.1800   -0.2010   17.4620 H         1 YOP1        0.0000
     62 H11S       -3.2870   -0.8390   18.7030 H         1 YOP1        0.0000
     63 C212       -4.2760    0.0520   16.9900 C.3       1 YOP1        0.0000
     64 H12R       -5.2440   -0.4750   17.1500 H         1 YOP1        0.0000
     65 H12S       -4.1180    0.1440   15.8910 H         1 YOP1        0.0000
     66 C213       -4.3730    1.4610   17.5920 C.3       1 YOP1        0.0000
     67 H13R       -3.4010    1.9830   17.4490 H         1 YOP1        0.0000
     68 H13S       -4.5550    1.3770   18.6870 H         1 YOP1        0.0000
     69 C214       -5.4890    2.3020   16.9590 C.3       1 YOP1        0.0000
     70 H14R       -6.4630    1.7810   17.0950 H         1 YOP1        0.0000
     71 H14S       -5.3020    2.3900   15.8650 H         1 YOP1        0.0000
     72 C215       -5.5820    3.7080   17.5670 C.3       1 YOP1        0.0000
     73 H15R       -4.6000    4.2200   17.4500 H         1 YOP1        0.0000
     74 H15S       -5.7890    3.6200   18.6570 H         1 YOP1        0.0000
     75 C216       -6.6740    4.5670   16.9150 C.3       1 YOP1        0.0000
     76 H16R       -7.6560    4.0540   17.0230 H         1 YOP1        0.0000
     77 H16S       -6.4600    4.6630   15.8270 H         1 YOP1        0.0000
     78 C217       -6.7690    5.9690   17.5320 C.3       1 YOP1        0.0000
     79 H17R       -5.7790    6.4700   17.4360 H         1 YOP1        0.0000
     80 H17S       -6.9870    5.8670   18.6200 H         1 YOP1        0.0000
     81 C218       -7.8420    6.8470   16.8830 C.3       1 YOP1        0.0000
     82 H18R       -8.8430    6.3750   16.9850 H         1 YOP1        0.0000
     83 H18S       -7.6290    6.9860   15.8020 H         1 YOP1        0.0000
     84 H18T       -7.8740    7.8470   17.3670 H         1 YOP1        0.0000
     85 C33        -1.8940   -3.3340    3.7090 C.3       1 YOP1        0.0000
     86 H3X        -1.7880   -3.5130    2.6150 H         1 YOP1        0.0000
     87 H3Y        -2.7220   -2.6020    3.8540 H         1 YOP1        0.0000
     88 C34        -2.2730   -4.6470    4.4040 C.3       1 YOP1        0.0000
     89 H4X        -2.3960   -4.4590    5.4940 H         1 YOP1        0.0000
     90 H4Y        -1.4400   -5.3760    4.2780 H         1 YOP1        0.0000
     91 C35        -3.5650   -5.2620    3.8490 C.3       1 YOP1        0.0000
     92 H5X        -3.4350   -5.4490    2.7600 H         1 YOP1        0.0000
     93 H5Y        -4.3990   -4.5360    3.9720 H         1 YOP1        0.0000
     94 C36        -3.9340   -6.5800    4.5440 C.3       1 YOP1        0.0000
     95 H6X        -4.1160   -6.3860    5.6250 H         1 YOP1        0.0000
     96 H6Y        -3.0730   -7.2820    4.4670 H         1 YOP1        0.0000
     97 C37        -5.1750   -7.2450    3.9310 C.3       1 YOP1        0.0000
     98 H7X        -4.9830   -7.4090    2.8460 H         1 YOP1        0.0000
     99 H7Y        -6.0400   -6.5490    4.0220 H         1 YOP1        0.0000
    100 C38        -5.5170   -8.5840    4.6080 C.3       1 YOP1        0.0000
    101 H8X        -5.7120   -8.3810    5.6840 H         1 YOP1        0.0000
    102 H8Y        -4.6200   -9.2410    4.5640 H         1 YOP1        0.0000
    103 C39        -6.6800   -9.2670    3.9290 C.2       1 YOP1        0.0000
    104 H9X        -6.5180   -9.4780    2.8600 H         1 YOP1        0.0000
    105 C310       -7.8600   -9.6140    4.4780 C.2       1 YOP1        0.0000
    106 H10X       -8.6150  -10.0960    3.8380 H         1 YOP1        0.0000
    107 C311       -8.2930   -9.4170    5.9110 C.3       1 YOP1        0.0000
    108 H11X       -7.4370   -9.1780    6.5800 H         1 YOP1        0.0000
    109 H11Y       -8.7420  -10.3580    6.3010 H         1 YOP1        0.0000
    110 C312       -9.3330   -8.2890    6.0410 C.3       1 YOP1        0.0000
    111 H12X      -10.2200   -8.5200    5.4090 H         1 YOP1        0.0000
    112 H12Y       -8.8920   -7.3340    5.6730 H         1 YOP1        0.0000
    113 C313       -9.8020   -8.0880    7.4890 C.3       1 YOP1        0.0000
    114 H13X       -8.9230   -7.8360    8.1250 H         1 YOP1        0.0000
    115 H13Y      -10.2310   -9.0430    7.8680 H         1 YOP1        0.0000
    116 C314      -10.8540   -6.9790    7.6210 C.3       1 YOP1        0.0000
    117 H14X      -11.7310   -7.2320    6.9840 H         1 YOP1        0.0000
    118 H14Y      -10.4260   -6.0230    7.2430 H         1 YOP1        0.0000
    119 C315      -11.3270   -6.7800    9.0670 C.3       1 YOP1        0.0000
    120 H15X      -10.4460   -6.5250    9.7000 H         1 YOP1        0.0000
    121 H15Y      -11.7410   -7.7430    9.4440 H         1 YOP1        0.0000
    122 C316      -12.3870   -5.6850    9.2120 C.3       1 YOP1        0.0000
    123 H16X      -13.2860   -5.9320    8.6080 H         1 YOP1        0.0000
    124 H16Y      -11.9870   -4.7090    8.8630 H         1 YOP1        0.0000
    125 H16Z      -12.6960   -5.5790   10.2750 H         1 YOP1        0.0000
@<TRIPOS>BOND
     1    6    5 1 
     2   11   10 1 
     3    2    1 1 
     4    5   10 1 
     5    5    1 1 
     6    5    7 1 
     7   10   12 1 
     8   10   16 1 
     9    3    1 1 
    10    1    4 1 
    11   15   13 2 
    12    9    7 ar
    13    7    8 ar
    14   14   13 1 
    15   13   16 1 
    16   13   17 1 
    17   17   18 1 
    18   86   85 1 
    19   34   33 2 
    20   92   91 1 
    21   31   29 1 
    22   98   97 1 
    23  104  103 1 
    24   20   18 1 
    25   33   35 1 
    26   33   32 1 
    27   85   87 1 
    28   85   35 1 
    29   85   88 1 
    30   18   21 1 
    31   18   19 1 
    32  106  105 1 
    33   91   93 1 
    34   91   88 1 
    35   91   94 1 
    36  103  105 2 
    37  103  100 1 
    38   97   99 1 
    39   97   94 1 
    40   97  100 1 
    41   29   30 1 
    42   29   32 1 
    43   29   21 1 
    44   37   35 1 
    45   22   21 1 
    46   35   36 1 
    47   90   88 1 
    48   88   89 1 
    49   21   23 1 
    50   96   94 1 
    51  105  107 1 
    52   94   95 1 
    53  102  100 1 
    54  100  101 1 
    55  111  110 1 
    56  112  110 1 
    57   23   24 1 
    58  107  110 1 
    59  107  109 1 
    60  107  108 1 
    61  110  113 1 
    62   25   24 2 
    63   24   26 1 
    64  117  116 1 
    65  118  116 1 
    66  113  116 1 
    67  113  115 1 
    68  113  114 1 
    69  116  119 1 
    70   26   28 1 
    71   26   27 1 
    72   26   38 1 
    73   39   38 1 
    74  123  122 1 
    75   40   38 1 
    76  124  122 1 
    77   38   41 1 
    78  119  122 1 
    79  119  121 1 
    80  119  120 1 
    81  122  125 1 
    82   41   43 1 
    83   41   42 1 
    84   41   44 1 
    85   45   44 1 
    86   46   44 1 
    87   44   47 1 
    88   47   49 1 
    89   47   48 1 
    90   47   50 1 
    91   51   50 1 
    92   52   50 1 
    93   50   53 1 
    94   53   55 1 
    95   53   54 1 
    96   53   56 1 
    97   57   56 1 
    98   83   81 1 
    99   77   75 1 
   100   71   69 1 
   101   65   63 1 
   102   56   58 2 
   103   81   82 1 
   104   81   84 1 
   105   81   78 1 
   106   75   76 1 
   107   75   78 1 
   108   75   72 1 
   109   69   70 1 
   110   69   72 1 
   111   69   66 1 
   112   63   64 1 
   113   63   66 1 
   114   63   60 1 
   115   58   59 1 
   116   58   60 1 
   117   79   78 1 
   118   67   66 1 
   119   73   72 1 
   120   61   60 1 
   121   78   80 1 
   122   72   74 1 
   123   66   68 1 
   124   60   62 1 
