@<TRIPOS>MOLECULE
C:\Users\Praveer\PycharmProjects\pdb_to_mol2_converter\data\pdb\yplipb.pdb
  221   222     0     0     0
SMALL
GASTEIGER

@<TRIPOS>ATOM
      1 HB6S       -7.9710    2.4750    0.9960 H         1 YPL1        0.0000
      2 OB6        -6.8550    0.9450    1.8820 O.3       1 YPL1        0.0000
      3 HOB6       -6.0860    0.4220    1.6300 H         1 YPL1        0.0000
      4 CB6        -7.1520    1.7610    0.7420 C.3       1 YPL1        0.0000
      5 HB6R       -7.5210    1.1240   -0.0930 H         1 YPL1        0.0000
      6 CB5        -5.9220    2.5250    0.2930 C.3       1 YPL1        0.0000
      7 OB5        -4.8030    1.6270    0.1650 O.3       1 YPL1        0.0000
      8 HB5        -5.7000    3.2790    1.0860 H         1 YPL1        0.0000
      9 CB1        -3.5900    2.3580   -0.0320 C.3       1 YPL1        0.0000
     10 HB1        -3.4230    3.0600    0.8160 H         1 YPL1        0.0000
     11 OA6        -2.4760    1.5220   -0.1740 O.3       1 YPL1        0.0000
     12 CA6        -2.1360    0.8190    1.0190 C.3       1 YPL1        0.0000
     13 HA6R       -2.5220   -0.2230    0.9520 H         1 YPL1        0.0000
     14 HA6S       -2.5760    1.3060    1.9170 H         1 YPL1        0.0000
     15 CB4        -6.0880    3.2330   -1.0370 C.3       1 YPL1        0.0000
     16 HB4        -6.2440    2.4560   -1.8260 H         1 YPL1        0.0000
     17 OB4        -7.1920    4.1170   -0.8930 O.3       1 YPL1        0.0000
     18 PB         -8.4790    4.1180   -1.9330 P.3       1 YPL1        0.0000
     19 OPB4       -8.5250    5.5440   -2.4680 O.3       1 YPL1        0.0000
     20 OPB3       -9.6640    3.7340   -1.0580 O.3       1 YPL1        0.0000
     21 OPB2       -8.1690    3.0940   -3.0170 O.2       1 YPL1        0.0000
     22 CB3        -4.8420    4.0220   -1.3560 C.3       1 YPL1        0.0000
     23 OB3        -4.9450    4.6010   -2.6580 O.3       1 YPL1        0.0000
     24 HB3        -4.6850    4.7850   -0.5500 H         1 YPL1        0.0000
     25 C71        -5.4680    5.8380   -2.6770 C.2       1 YPL1        0.0000
     26 O71        -5.2270    6.6770   -1.8230 O.2       1 YPL1        0.0000
     27 C72        -5.7350    6.1780   -4.1360 C.3       1 YPL1        0.0000
     28 H72R       -6.7490    5.7760   -4.3610 H         1 YPL1        0.0000
     29 H72S       -5.0000    5.6700   -4.7890 H         1 YPL1        0.0000
     30 CB2        -3.6280    3.1300   -1.3290 C.3       1 YPL1        0.0000
     31 HB2        -3.7340    2.3870   -2.1620 H         1 YPL1        0.0000
     32 NB2        -2.3980    3.8940   -1.4870 N.am      1 YPL1        0.0000
     33 HNB2       -2.1390    4.4530   -0.7120 H         1 YPL1        0.0000
     34 CA4         0.0010    2.1950    1.1730 C.3       1 YPL1        0.0000
     35 HA4        -0.3050    2.7200    0.2380 H         1 YPL1        0.0000
     36 OA4        -0.4930    2.9360    2.2850 O.3       1 YPL1        0.0000
     37 HOA4       -0.2400    3.8590    2.1220 H         1 YPL1        0.0000
     38 CA5        -0.6250    0.8050    1.1290 C.3       1 YPL1        0.0000
     39 HA5        -0.3440    0.2480    2.0530 H         1 YPL1        0.0000
     40 OA5        -0.1410    0.0860   -0.0130 O.3       1 YPL1        0.0000
     41 CA1         1.2820   -0.0940   -0.0150 C.3       1 YPL1        0.0000
     42 HA1         1.5070   -0.5780   -0.9990 H         1 YPL1        0.0000
     43 OA1         1.6670   -0.9270    1.0660 O.3       1 YPL1        0.0000
     44 OPA2        2.8250   -2.9120    2.0940 O.3       1 YPL1        0.0000
     45 OPA3        2.5880   -2.7250   -0.4490 O.2       1 YPL1        0.0000
     46 OPA4        4.1520   -1.1690    0.7920 O.3       1 YPL1        0.0000
     47 PA          2.8920   -2.0140    0.8670 P.3       1 YPL1        0.0000
     48 CA3         1.5200    2.0880    1.1790 C.3       1 YPL1        0.0000
     49 HA3         1.8040    1.4910    2.0830 H         1 YPL1        0.0000
     50 OA3         2.3510    3.2560    1.1850 O.3       1 YPL1        0.0000
     51 C31         1.9700    4.5000    1.0780 C.2       1 YPL1        0.0000
     52 O31         0.8320    4.9310    1.0980 O.2       1 YPL1        0.0000
     53 C32         3.2350    5.3590    1.1700 C.3       1 YPL1        0.0000
     54 H32R        3.9200    5.0480    0.3550 H         1 YPL1        0.0000
     55 H32S        3.7230    5.1300    2.1400 H         1 YPL1        0.0000
     56 CA2         1.9480    1.2690   -0.0170 C.3       1 YPL1        0.0000
     57 HA2         1.5420    1.7930   -0.9200 H         1 YPL1        0.0000
     58 NA2         3.3740    1.1410   -0.2050 N.am      1 YPL1        0.0000
     59 HNA2        3.7210    0.2520    0.1720 H         1 YPL1        0.0000
     60 C73        -5.6970    7.6980   -4.3330 C.3       1 YPL1        0.0000
     61 H73R       -6.3750    8.1890   -3.5920 H         1 YPL1        0.0000
     62 O73        -6.2090    7.9480   -5.6300 O.3       1 YPL1        0.0000
     63 HO73       -7.0980    7.5960   -5.7530 H         1 YPL1        0.0000
     64 C74        -4.2810    8.3220   -4.2190 C.3       1 YPL1        0.0000
     65 H74R       -3.6340    7.9040   -5.0240 H         1 YPL1        0.0000
     66 H74S       -3.8450    8.0270   -3.2390 H         1 YPL1        0.0000
     67 C75        -4.2600    9.8660   -4.2980 C.3       1 YPL1        0.0000
     68 H75R       -5.2110   10.2570   -3.8740 H         1 YPL1        0.0000
     69 H75S       -4.2440   10.1730   -5.3650 H         1 YPL1        0.0000
     70 C76        -3.0840   10.5160   -3.5400 C.3       1 YPL1        0.0000
     71 H76R       -2.1570    9.9220   -3.7070 H         1 YPL1        0.0000
     72 H76S       -3.3220   10.4800   -2.4540 H         1 YPL1        0.0000
     73 C77        -2.8180   11.9870   -3.9280 C.3       1 YPL1        0.0000
     74 H77R       -3.7810   12.4880   -4.1580 H         1 YPL1        0.0000
     75 H77S       -2.2430   11.9840   -4.8740 H         1 YPL1        0.0000
     76 C78        -2.0590   12.7940   -2.8470 C.3       1 YPL1        0.0000
     77 H78R       -1.3320   12.1140   -2.3510 H         1 YPL1        0.0000
     78 H78S       -2.7960   13.1260   -2.0840 H         1 YPL1        0.0000
     79 C79        -1.2670   14.0190   -3.3650 C.3       1 YPL1        0.0000
     80 H79R       -1.9670   14.7110   -3.8680 H         1 YPL1        0.0000
     81 H79S       -0.5790   13.6550   -4.1530 H         1 YPL1        0.0000
     82 C710       -0.4620   14.7760   -2.2750 C.3       1 YPL1        0.0000
     83 H710       -0.2940   14.0340   -1.4620 H         1 YPL1        0.0000
     84 H710       -1.0580   15.5880   -1.8010 H         1 YPL1        0.0000
     85 C711        0.9600   15.2580   -2.6700 C.3       1 YPL1        0.0000
     86 H711        1.5340   14.4100   -3.0900 H         1 YPL1        0.0000
     87 H711        1.5030   15.5300   -1.7370 H         1 YPL1        0.0000
     88 C712        1.1010   16.4300   -3.6650 C.3       1 YPL1        0.0000
     89 H712        0.7270   17.3720   -3.2150 H         1 YPL1        0.0000
     90 H712        0.5250   16.2450   -4.5920 H         1 YPL1        0.0000
     91 C713        2.5720   16.6210   -4.0770 C.3       1 YPL1        0.0000
     92 H713        3.0320   15.6100   -4.1240 H         1 YPL1        0.0000
     93 H713        3.1050   17.1810   -3.2780 H         1 YPL1        0.0000
     94 C714        2.8050   17.3010   -5.4310 C.3       1 YPL1        0.0000
     95 H714        2.3180   18.2980   -5.4590 H         1 YPL1        0.0000
     96 H714        2.3930   16.6910   -6.2620 H         1 YPL1        0.0000
     97 H714        3.8970   17.4150   -5.6150 H         1 YPL1        0.0000
     98 C51        -1.5660    3.8400   -2.5320 C.2       1 YPL1        0.0000
     99 O51        -1.8240    3.2480   -3.5740 O.2       1 YPL1        0.0000
    100 C52        -0.2540    4.5890   -2.3360 C.3       1 YPL1        0.0000
    101 H52R        0.4850    3.8900   -1.8950 H         1 YPL1        0.0000
    102 H52S       -0.4380    5.4150   -1.6180 H         1 YPL1        0.0000
    103 C53         0.3210    5.1940   -3.6350 C.3       1 YPL1        0.0000
    104 H53R        1.1010    5.9380   -3.3420 H         1 YPL1        0.0000
    105 O53        -0.6820    5.8980   -4.3440 O.3       1 YPL1        0.0000
    106 HO53       -1.4100    5.3210   -4.6220 H         1 YPL1        0.0000
    107 C54         1.0090    4.1710   -4.5620 C.3       1 YPL1        0.0000
    108 H54R        0.3000    3.3610   -4.8400 H         1 YPL1        0.0000
    109 H54S        1.8450    3.7030   -3.9950 H         1 YPL1        0.0000
    110 C55         1.5720    4.8140   -5.8380 C.3       1 YPL1        0.0000
    111 H55R        2.1480    5.7230   -5.5570 H         1 YPL1        0.0000
    112 H55S        0.7250    5.1410   -6.4830 H         1 YPL1        0.0000
    113 C56         2.4780    3.8780   -6.6430 C.3       1 YPL1        0.0000
    114 H56R        1.8650    3.0370   -7.0370 H         1 YPL1        0.0000
    115 H56S        3.2560    3.4410   -5.9760 H         1 YPL1        0.0000
    116 C57         3.1670    4.6190   -7.7940 C.3       1 YPL1        0.0000
    117 H57R        4.1640    4.9670   -7.4400 H         1 YPL1        0.0000
    118 H57S        2.5770    5.5270   -8.0590 H         1 YPL1        0.0000
    119 C58         3.3330    3.7770   -9.0640 C.3       1 YPL1        0.0000
    120 H58R        2.3730    3.7900   -9.6280 H         1 YPL1        0.0000
    121 H58S        3.5540    2.7200   -8.7960 H         1 YPL1        0.0000
    122 C59         4.4640    4.3240   -9.9410 C.3       1 YPL1        0.0000
    123 H59R        5.4370    4.1360   -9.4300 H         1 YPL1        0.0000
    124 H59S        4.3420    5.4260  -10.0330 H         1 YPL1        0.0000
    125 C510        4.5110    3.7170  -11.3460 C.3       1 YPL1        0.0000
    126 H510        3.5000    3.7620  -11.8110 H         1 YPL1        0.0000
    127 H510        4.8000    2.6460  -11.2700 H         1 YPL1        0.0000
    128 C511        5.5020    4.4690  -12.2440 C.3       1 YPL1        0.0000
    129 H511        6.3840    4.7800  -11.6390 H         1 YPL1        0.0000
    130 H511        5.0080    5.3960  -12.6140 H         1 YPL1        0.0000
    131 C512        6.0060    3.6360  -13.4290 C.3       1 YPL1        0.0000
    132 H512        5.1700    3.0450  -13.8640 H         1 YPL1        0.0000
    133 H512        6.7630    2.9150  -13.0450 H         1 YPL1        0.0000
    134 C513        6.6320    4.5010  -14.5310 C.3       1 YPL1        0.0000
    135 H513        7.4700    3.9350  -15.0000 H         1 YPL1        0.0000
    136 H513        7.0690    5.4180  -14.0740 H         1 YPL1        0.0000
    137 C514        5.6340    4.8870  -15.6270 C.3       1 YPL1        0.0000
    138 H514        4.7570    5.4100  -15.1880 H         1 YPL1        0.0000
    139 H514        5.2700    3.9770  -16.1510 H         1 YPL1        0.0000
    140 H514        6.1100    5.5560  -16.3750 H         1 YPL1        0.0000
    141 C33         2.9750    6.8800    1.0790 C.3       1 YPL1        0.0000
    142 H33R        3.9450    7.3980    1.2810 H         1 YPL1        0.0000
    143 O33         2.0740    7.2690    2.0960 O.3       1 YPL1        0.0000
    144 HO33        1.2180    6.8240    2.0420 H         1 YPL1        0.0000
    145 C34         2.4790    7.3630   -0.3020 C.3       1 YPL1        0.0000
    146 H34R        1.4830    6.9210   -0.5210 H         1 YPL1        0.0000
    147 H34S        3.1940    6.9760   -1.0620 H         1 YPL1        0.0000
    148 C35         2.3840    8.8980   -0.4790 C.3       1 YPL1        0.0000
    149 H35R        3.2510    9.3910    0.0130 H         1 YPL1        0.0000
    150 H35S        1.4690    9.2540    0.0450 H         1 YPL1        0.0000
    151 C36         2.3380    9.3110   -1.9670 C.3       1 YPL1        0.0000
    152 H36R        1.9970    8.4240   -2.5490 H         1 YPL1        0.0000
    153 H36S        3.3640    9.5650   -2.3150 H         1 YPL1        0.0000
    154 C37         1.3690   10.4640   -2.2980 C.3       1 YPL1        0.0000
    155 H37R        1.7630   11.4330   -1.9210 H         1 YPL1        0.0000
    156 H37S        0.4210   10.2600   -1.7470 H         1 YPL1        0.0000
    157 C38         1.0000   10.5580   -3.7990 C.3       1 YPL1        0.0000
    158 H38R       -0.1040   10.6860   -3.8650 H         1 YPL1        0.0000
    159 H38S        1.2550    9.6090   -4.3180 H         1 YPL1        0.0000
    160 C39         1.5850   11.7710   -4.5440 C.3       1 YPL1        0.0000
    161 H39R        2.6620   11.6300   -4.7420 H         1 YPL1        0.0000
    162 H39S        1.5160   12.6210   -3.8420 H         1 YPL1        0.0000
    163 C310        0.8200   12.1270   -5.8440 C.3       1 YPL1        0.0000
    164 H310       -0.2640   11.9850   -5.6410 H         1 YPL1        0.0000
    165 H310        1.0970   11.4210   -6.6580 H         1 YPL1        0.0000
    166 C311        1.0160   13.5830   -6.3230 C.3       1 YPL1        0.0000
    167 H311        2.0050   13.6790   -6.8180 H         1 YPL1        0.0000
    168 H311        1.0830   14.2590   -5.4510 H         1 YPL1        0.0000
    169 C312       -0.0720   14.1020   -7.2930 C.3       1 YPL1        0.0000
    170 H312       -0.5380   13.2450   -7.8370 H         1 YPL1        0.0000
    171 H312        0.4580   14.7580   -8.0240 H         1 YPL1        0.0000
    172 C313       -1.1560   15.0090   -6.6720 C.3       1 YPL1        0.0000
    173 H313       -0.8890   15.3000   -5.6410 H         1 YPL1        0.0000
    174 H313       -2.0950   14.4320   -6.5790 H         1 YPL1        0.0000
    175 C314       -1.4340   16.3040   -7.4440 C.3       1 YPL1        0.0000
    176 H314       -1.8440   16.0800   -8.4510 H         1 YPL1        0.0000
    177 H314       -0.4820   16.8640   -7.5680 H         1 YPL1        0.0000
    178 H314       -2.1660   16.9380   -6.8880 H         1 YPL1        0.0000
    179 C11         4.0580    1.7580   -1.1700 C.2       1 YPL1        0.0000
    180 O11         3.8550    2.9280   -1.4940 O.2       1 YPL1        0.0000
    181 C12         5.0060    0.8540   -1.9350 C.3       1 YPL1        0.0000
    182 H12R        4.3610    0.1290   -2.4800 H         1 YPL1        0.0000
    183 H12S        5.6140    0.2720   -1.2130 H         1 YPL1        0.0000
    184 C13         5.8920    1.6300   -2.9210 C.3       1 YPL1        0.0000
    185 H13R        5.3210    2.4570   -3.4020 H         1 YPL1        0.0000
    186 O13         6.2790    0.7300   -3.9450 O.3       1 YPL1        0.0000
    187 HO13        6.5340   -0.1370   -3.6220 H         1 YPL1        0.0000
    188 C14         7.1620    2.1910   -2.2510 C.3       1 YPL1        0.0000
    189 H14R        7.6640    1.3550   -1.7130 H         1 YPL1        0.0000
    190 H14S        6.8480    2.9370   -1.4890 H         1 YPL1        0.0000
    191 C15         8.1920    2.8390   -3.1990 C.3       1 YPL1        0.0000
    192 H15R        8.5840    2.0750   -3.9080 H         1 YPL1        0.0000
    193 H15S        9.0470    3.1900   -2.5800 H         1 YPL1        0.0000
    194 C16         7.6430    4.0270   -4.0000 C.3       1 YPL1        0.0000
    195 H16R        6.9040    4.5800   -3.3780 H         1 YPL1        0.0000
    196 H16S        7.1050    3.6410   -4.8950 H         1 YPL1        0.0000
    197 C17         8.7500    5.0020   -4.4330 C.3       1 YPL1        0.0000
    198 H17R        9.5280    4.4480   -5.0030 H         1 YPL1        0.0000
    199 H17S        9.2310    5.4230   -3.5210 H         1 YPL1        0.0000
    200 C18         8.2170    6.1550   -5.2910 C.3       1 YPL1        0.0000
    201 H18R        7.4510    6.7050   -4.6970 H         1 YPL1        0.0000
    202 H18S        7.7100    5.7420   -6.1920 H         1 YPL1        0.0000
    203 C19         9.3080    7.1450   -5.7310 C.3       1 YPL1        0.0000
    204 H19R       10.0350    6.6400   -6.4040 H         1 YPL1        0.0000
    205 H19S        9.8620    7.4860   -4.8270 H         1 YPL1        0.0000
    206 C110        8.7010    8.3670   -6.4320 C.3       1 YPL1        0.0000
    207 H110        7.8550    8.7180   -5.7960 H         1 YPL1        0.0000
    208 H110        8.2690    8.0710   -7.4120 H         1 YPL1        0.0000
    209 C111        9.6620    9.5560   -6.6070 C.3       1 YPL1        0.0000
    210 H111       10.4370    9.5600   -5.8110 H         1 YPL1        0.0000
    211 H111        9.0430   10.4690   -6.4630 H         1 YPL1        0.0000
    212 C112       10.3180    9.6270   -7.9970 C.3       1 YPL1        0.0000
    213 H112        9.5440    9.3890   -8.7620 H         1 YPL1        0.0000
    214 H112       11.1100    8.8500   -8.0720 H         1 YPL1        0.0000
    215 C113       10.9080   11.0060   -8.3540 C.3       1 YPL1        0.0000
    216 H113       11.2690   10.9600   -9.4080 H         1 YPL1        0.0000
    217 H113       11.7950   11.2040   -7.7110 H         1 YPL1        0.0000
    218 C114        9.9260   12.1780   -8.2250 C.3       1 YPL1        0.0000
    219 H114        9.7590   12.4310   -7.1560 H         1 YPL1        0.0000
    220 H114        8.9460   11.9140   -8.6790 H         1 YPL1        0.0000
    221 H114       10.3180   13.0830   -8.7350 H         1 YPL1        0.0000
@<TRIPOS>BOND
     1  140  137 1 
     2  139  137 1 
     3  137  138 1 
     4  137  134 1 
     5  135  134 1 
     6  134  136 1 
     7  134  131 1 
     8  132  131 1 
     9  131  133 1 
    10  131  128 1 
    11  130  128 1 
    12  128  129 1 
    13  128  125 1 
    14  126  125 1 
    15  125  127 1 
    16  125  122 1 
    17  124  122 1 
    18  122  123 1 
    19  122  119 1 
    20  120  119 1 
    21  216  215 1 
    22  119  121 1 
    23  119  116 1 
    24  213  212 1 
    25  221  218 1 
    26  220  218 1 
    27  176  175 1 
    28  215  218 1 
    29  215  212 1 
    30  215  217 1 
    31  218  219 1 
    32  214  212 1 
    33  118  116 1 
    34  171  169 1 
    35  212  209 1 
    36  170  169 1 
    37  116  117 1 
    38  116  113 1 
    39  177  175 1 
    40  175  178 1 
    41  175  172 1 
    42  208  206 1 
    43  169  172 1 
    44  169  166 1 
    45  114  113 1 
    46  167  166 1 
    47  172  174 1 
    48  172  173 1 
    49  165  163 1 
    50  113  115 1 
    51  113  110 1 
    52  209  211 1 
    53  209  206 1 
    54  209  210 1 
    55  112  110 1 
    56  206  207 1 
    57  206  203 1 
    58  204  203 1 
    59  166  163 1 
    60  166  168 1 
    61   96   94 1 
    62  202  200 1 
    63  163  164 1 
    64  163  160 1 
    65  110  111 1 
    66  110  107 1 
    67   63   62 1 
    68  203  200 1 
    69  203  205 1 
    70   62   60 1 
    71   97   94 1 
    72   95   94 1 
    73   94   91 1 
    74   69   67 1 
    75  200  201 1 
    76  200  197 1 
    77   65   64 1 
    78  198  197 1 
    79  196  194 1 
    80   75   73 1 
    81  108  107 1 
    82   29   27 1 
    83  161  160 1 
    84  106  105 1 
    85   90   88 1 
    86  107  109 1 
    87  107  103 1 
    88  160  162 1 
    89  160  157 1 
    90  197  194 1 
    91  197  199 1 
    92   28   27 1 
    93  105  103 1 
    94   60   64 1 
    95   60   27 1 
    96   60   61 1 
    97  159  157 1 
    98   67   64 1 
    99   67   68 1 
   100   67   70 1 
   101   64   66 1 
   102   74   73 1 
   103   81   79 1 
   104   27   25 1 
   105   92   91 1 
   106   91   88 1 
   107   91   93 1 
   108  194  195 1 
   109  194  191 1 
   110  186  187 1 
   111  186  184 1 
   112   73   70 1 
   113   73   76 1 
   114  192  191 1 
   115   80   79 1 
   116  158  157 1 
   117  157  154 1 
   118   71   70 1 
   119   88   89 1 
   120   88   85 1 
   121  103  104 1 
   122  103  100 1 
   123   99   98 2 
   124   70   72 1 
   125  185  184 1 
   126   79   76 1 
   127   79   82 1 
   128  191  193 1 
   129  191  188 1 
   130   86   85 1 
   131   21   18 2 
   132  184  188 1 
   133  184  181 1 
   134   76   77 1 
   135   76   78 1 
   136   25   23 1 
   137   25   26 2 
   138   85   82 1 
   139   85   87 1 
   140   23   22 1 
   141  152  151 1 
   142   98  100 1 
   143   98   32 am
   144  182  181 1 
   145   19   18 1 
   146  100  101 1 
   147  100  102 1 
   148  153  151 1 
   149  154  151 1 
   150  154  155 1 
   151  154  156 1 
   152   82   84 1 
   153   82   83 1 
   154  188  189 1 
   155  188  190 1 
   156   31   30 1 
   157  151  148 1 
   158  181  183 1 
   159  181  179 1 
   160   18   20 1 
   161   18   17 1 
   162   16   15 1 
   163  180  179 2 
   164   32   30 1 
   165   32   33 1 
   166   22   30 1 
   167   22   15 1 
   168   22   24 1 
   169   30    9 1 
   170  179   58 am
   171  147  145 1 
   172   15   17 1 
   173   15    6 1 
   174   42   41 1 
   175   57   56 1 
   176  146  145 1 
   177  148  145 1 
   178  148  149 1 
   179  148  150 1 
   180   45   47 2 
   181  145  141 1 
   182   58   56 1 
   183   58   59 1 
   184   11    9 1 
   185   11   12 1 
   186    5    4 1 
   187    9    7 1 
   188    9   10 1 
   189   56   41 1 
   190   56   48 1 
   191   41   40 1 
   192   41   43 1 
   193   40   38 1 
   194    7    6 1 
   195   35   34 1 
   196    6    4 1 
   197    6    8 1 
   198   54   53 1 
   199    4    1 1 
   200    4    2 1 
   201   46   47 1 
   202   47   43 1 
   203   47   44 1 
   204   13   12 1 
   205   12   38 1 
   206   12   14 1 
   207   51   52 2 
   208   51   53 1 
   209   51   50 1 
   210  141   53 1 
   211  141  142 1 
   212  141  143 1 
   213   38   34 1 
   214   38   39 1 
   215   53   55 1 
   216   34   48 1 
   217   34   36 1 
   218   48   50 1 
   219   48   49 1 
   220    3    2 1 
   221  144  143 1 
   222   37   36 1 
