@<TRIPOS>MOLECULE
C:\Users\Praveer\PycharmProjects\pdb_to_mol2_converter\data\pdb\yplipa.pdb
  301   302     0     0     0
SMALL
GASTEIGER

@<TRIPOS>ATOM
      1 HB6S       -7.9830    2.2180    0.7950 H         1 YPL1        0.0000
      2 OB6        -6.7870    0.7580    1.7000 O.3       1 YPL1        0.0000
      3 HOB6       -5.9170    0.3840    1.5220 H         1 YPL1        0.0000
      4 CB6        -7.0580    1.6290    0.5950 C.3       1 YPL1        0.0000
      5 HB6R       -7.2510    1.0230   -0.3190 H         1 YPL1        0.0000
      6 CB5        -5.8850    2.5540    0.3400 C.3       1 YPL1        0.0000
      7 OB5        -4.7110    1.7370    0.2130 O.3       1 YPL1        0.0000
      8 HB5        -5.7850    3.2310    1.2210 H         1 YPL1        0.0000
      9 CB1        -3.5240    2.5190    0.0810 C.3       1 YPL1        0.0000
     10 HB1        -3.3800    3.1710    0.9730 H         1 YPL1        0.0000
     11 OA6        -2.4130    1.6890   -0.0850 O.3       1 YPL1        0.0000
     12 CA6        -2.1690    0.8600    1.0500 C.3       1 YPL1        0.0000
     13 HA6R       -2.6210   -0.1440    0.8850 H         1 YPL1        0.0000
     14 HA6S       -2.6050    1.3050    1.9720 H         1 YPL1        0.0000
     15 CB4        -6.0110    3.3770   -0.9260 C.3       1 YPL1        0.0000
     16 HB4        -6.0890    2.6550   -1.7770 H         1 YPL1        0.0000
     17 OB4        -7.1710    4.1850   -0.7790 O.3       1 YPL1        0.0000
     18 PB         -8.4000    4.1920   -1.8910 P.3       1 YPL1        0.0000
     19 OPB4       -8.4430    5.6370   -2.3800 O.3       1 YPL1        0.0000
     20 OPB3       -9.6280    3.7600   -1.1060 O.3       1 YPL1        0.0000
     21 OPB2       -8.0030    3.2170   -2.9890 O.2       1 YPL1        0.0000
     22 CB3        -4.7830    4.2320   -1.1510 C.3       1 YPL1        0.0000
     23 OB3        -4.8600    4.8220   -2.4370 O.3       1 YPL1        0.0000
     24 HB3        -4.6810    4.9850   -0.3300 H         1 YPL1        0.0000
     25 C71        -5.4630    6.0120   -2.5180 C.2       1 YPL1        0.0000
     26 O71        -5.2560    6.9210   -1.7220 O.2       1 YPL1        0.0000
     27 C72        -5.6820    6.2100   -4.0100 C.3       1 YPL1        0.0000
     28 H72R       -6.6860    5.7790   -4.2270 H         1 YPL1        0.0000
     29 H72S       -4.9290    5.6310   -4.5820 H         1 YPL1        0.0000
     30 CB2        -3.5510    3.3630   -1.1710 C.3       1 YPL1        0.0000
     31 HB2        -3.6730    2.6550   -2.0330 H         1 YPL1        0.0000
     32 NB2        -2.3020    4.1150   -1.3440 N.am      1 YPL1        0.0000
     33 HNB2       -1.9430    4.5450   -0.5260 H         1 YPL1        0.0000
     34 CA4        -0.0150    2.1280    1.2210 C.3       1 YPL1        0.0000
     35 HA4        -0.3030    2.6520    0.2790 H         1 YPL1        0.0000
     36 OA4        -0.4960    2.8900    2.3250 O.3       1 YPL1        0.0000
     37 HOA4       -0.2490    3.8080    2.1360 H         1 YPL1        0.0000
     38 CA5        -0.6690    0.7560    1.1950 C.3       1 YPL1        0.0000
     39 HA5        -0.4350    0.2190    2.1430 H         1 YPL1        0.0000
     40 OA5        -0.1910   -0.0310    0.0920 O.3       1 YPL1        0.0000
     41 CA1         1.2380   -0.1790    0.0400 C.3       1 YPL1        0.0000
     42 HA1         1.4230   -0.6640   -0.9520 H         1 YPL1        0.0000
     43 OA1         1.6810   -1.0070    1.1030 O.3       1 YPL1        0.0000
     44 OPA2        2.9440   -2.9390    2.1280 O.3       1 YPL1        0.0000
     45 OPA3        2.5650   -2.8360   -0.4020 O.2       1 YPL1        0.0000
     46 OPA4        4.1520   -1.2070    0.7200 O.3       1 YPL1        0.0000
     47 PA          2.9170   -2.0770    0.8640 P.3       1 YPL1        0.0000
     48 CA3         1.4890    1.9860    1.2230 C.3       1 YPL1        0.0000
     49 HA3         1.7670    1.3770    2.1200 H         1 YPL1        0.0000
     50 OA3         2.3350    3.1360    1.2340 O.3       1 YPL1        0.0000
     51 C31         1.9670    4.3720    1.0730 C.2       1 YPL1        0.0000
     52 O31         0.8330    4.8160    1.0510 O.2       1 YPL1        0.0000
     53 C32         3.2270    5.1990    1.3110 C.3       1 YPL1        0.0000
     54 H32R        3.9770    4.9080    0.5470 H         1 YPL1        0.0000
     55 H32S        3.6230    4.9300    2.3120 H         1 YPL1        0.0000
     56 CA2         1.8850    1.1900    0.0090 C.3       1 YPL1        0.0000
     57 HA2         1.4520    1.7070   -0.8850 H         1 YPL1        0.0000
     58 NA2         3.3060    1.0750   -0.1900 N.am      1 YPL1        0.0000
     59 HNA2        3.6790    0.2260    0.2450 H         1 YPL1        0.0000
     60 C73        -5.6560    7.6760   -4.4430 C.3       1 YPL1        0.0000
     61 H73R       -6.4260    8.2390   -3.8550 H         1 YPL1        0.0000
     62 O73        -5.9320    7.6180   -5.8490 O.3       1 YPL1        0.0000
     63 C81        -7.0980    8.1140   -6.2240 C.2       1 YPL1        0.0000
     64 O81        -7.7620    8.9190   -5.6070 O.2       1 YPL1        0.0000
     65 C82        -7.3290    7.8340   -7.7220 C.3       1 YPL1        0.0000
     66 H82R       -7.7910    8.7630   -8.1160 H         1 YPL1        0.0000
     67 H82S       -8.0810    7.0260   -7.8070 H         1 YPL1        0.0000
     68 C83        -6.0780    7.4940   -8.5730 C.3       1 YPL1        0.0000
     69 H83R       -5.9770    6.3920   -8.6790 H         1 YPL1        0.0000
     70 H83S       -5.1570    7.8610   -8.0700 H         1 YPL1        0.0000
     71 C84        -6.1350    8.1700   -9.9490 C.3       1 YPL1        0.0000
     72 H84R       -6.3300    9.2530   -9.7720 H         1 YPL1        0.0000
     73 H84S       -6.9880    7.7710  -10.5400 H         1 YPL1        0.0000
     74 C85        -4.8300    8.0520  -10.7530 C.3       1 YPL1        0.0000
     75 H85R       -4.9450    7.2740  -11.5380 H         1 YPL1        0.0000
     76 H85S       -4.0070    7.7270  -10.0790 H         1 YPL1        0.0000
     77 C86        -4.4310    9.3900  -11.3940 C.3       1 YPL1        0.0000
     78 H86R       -4.3150   10.1460  -10.5860 H         1 YPL1        0.0000
     79 H86S       -5.2570    9.7330  -12.0540 H         1 YPL1        0.0000
     80 C87        -3.1260    9.3300  -12.2000 C.3       1 YPL1        0.0000
     81 H87R       -3.1870    8.5100  -12.9470 H         1 YPL1        0.0000
     82 H87S       -2.2920    9.0970  -11.5040 H         1 YPL1        0.0000
     83 C88        -2.8290   10.6520  -12.9230 C.3       1 YPL1        0.0000
     84 H88R       -3.0120   11.4890  -12.2100 H         1 YPL1        0.0000
     85 H88S       -3.5410   10.7750  -13.7680 H         1 YPL1        0.0000
     86 C89        -1.3880   10.7890  -13.4400 C.3       1 YPL1        0.0000
     87 H89R       -0.6730   10.6750  -12.5970 H         1 YPL1        0.0000
     88 H89S       -1.2770   11.8270  -13.8320 H         1 YPL1        0.0000
     89 C810       -1.0060    9.8220  -14.5710 C.3       1 YPL1        0.0000
     90 H810       -1.8160    9.8250  -15.3320 H         1 YPL1        0.0000
     91 H810       -0.9170    8.7860  -14.1790 H         1 YPL1        0.0000
     92 C811        0.3090   10.2380  -15.2520 C.3       1 YPL1        0.0000
     93 H811        1.1590    9.9920  -14.5770 H         1 YPL1        0.0000
     94 H811        0.3000   11.3450  -15.3800 H         1 YPL1        0.0000
     95 C812        0.5400    9.6060  -16.6270 C.3       1 YPL1        0.0000
     96 H812       -0.2870    9.8740  -17.3190 H         1 YPL1        0.0000
     97 H812        0.5930    8.5000  -16.5520 H         1 YPL1        0.0000
     98 H812        1.4920    9.9770  -17.0670 H         1 YPL1        0.0000
     99 C74        -4.2860    8.3760   -4.2480 C.3       1 YPL1        0.0000
    100 H74R       -3.4920    7.7990   -4.7650 H         1 YPL1        0.0000
    101 H74S       -4.0420    8.3710   -3.1640 H         1 YPL1        0.0000
    102 C75        -4.2790    9.8480   -4.7100 C.3       1 YPL1        0.0000
    103 H75R       -3.7550   10.4780   -3.9580 H         1 YPL1        0.0000
    104 H75S       -5.3380   10.1910   -4.7500 H         1 YPL1        0.0000
    105 C76        -3.6200   10.0650   -6.0780 C.3       1 YPL1        0.0000
    106 H76R       -3.8460    9.1970   -6.7370 H         1 YPL1        0.0000
    107 H76S       -2.5160   10.0910   -5.9380 H         1 YPL1        0.0000
    108 C77        -4.0930   11.3490   -6.7820 C.3       1 YPL1        0.0000
    109 H77R       -4.7610   11.9340   -6.1140 H         1 YPL1        0.0000
    110 H77S       -4.6970   11.0460   -7.6670 H         1 YPL1        0.0000
    111 C78        -2.9360   12.2420   -7.2470 C.3       1 YPL1        0.0000
    112 H78R       -2.1810   11.5760   -7.7190 H         1 YPL1        0.0000
    113 H78S       -2.4560   12.7370   -6.3750 H         1 YPL1        0.0000
    114 C79        -3.3510   13.2850   -8.2970 C.3       1 YPL1        0.0000
    115 H79R       -3.8220   14.1640   -7.8080 H         1 YPL1        0.0000
    116 H79S       -4.1110   12.8190   -8.9650 H         1 YPL1        0.0000
    117 C710       -2.1620   13.7110   -9.1690 C.3       1 YPL1        0.0000
    118 H710       -1.6640   12.7740   -9.5140 H         1 YPL1        0.0000
    119 H710       -1.4220   14.2820   -8.5700 H         1 YPL1        0.0000
    120 C711       -2.5460   14.4900  -10.4340 C.3       1 YPL1        0.0000
    121 H711       -3.5030   14.0980  -10.8450 H         1 YPL1        0.0000
    122 H711       -1.7600   14.3020  -11.2010 H         1 YPL1        0.0000
    123 C712       -2.6450   16.0080  -10.2420 C.3       1 YPL1        0.0000
    124 H712       -1.7890   16.3710   -9.6300 H         1 YPL1        0.0000
    125 H712       -3.5810   16.2430   -9.6900 H         1 YPL1        0.0000
    126 C713       -2.6270   16.7440  -11.5880 C.3       1 YPL1        0.0000
    127 H713       -3.2080   16.1460  -12.3270 H         1 YPL1        0.0000
    128 H713       -1.5760   16.7850  -11.9550 H         1 YPL1        0.0000
    129 C714       -3.2110   18.1560  -11.5400 C.3       1 YPL1        0.0000
    130 H714       -2.6830   18.7770  -10.7870 H         1 YPL1        0.0000
    131 H714       -4.2880   18.1140  -11.2700 H         1 YPL1        0.0000
    132 H714       -3.1190   18.6480  -12.5320 H         1 YPL1        0.0000
    133 C51        -1.5290    4.0910   -2.4440 C.2       1 YPL1        0.0000
    134 O51        -1.9150    3.6800   -3.5340 O.2       1 YPL1        0.0000
    135 C52        -0.0930    4.5460   -2.2590 C.3       1 YPL1        0.0000
    136 H52R        0.4940    3.6650   -1.9200 H         1 YPL1        0.0000
    137 H52S       -0.0480    5.3270   -1.4760 H         1 YPL1        0.0000
    138 C53         0.5340    5.0740   -3.5660 C.3       1 YPL1        0.0000
    139 H53R        0.4580    4.2710   -4.3410 H         1 YPL1        0.0000
    140 O53         1.9000    5.3990   -3.2430 O.3       1 YPL1        0.0000
    141 C61         2.8070    5.0620   -4.1610 C.2       1 YPL1        0.0000
    142 O61         2.5660    4.5930   -5.2600 O.2       1 YPL1        0.0000
    143 C62         4.2100    5.4710   -3.7070 C.3       1 YPL1        0.0000
    144 H62R        4.9340    5.0190   -4.4170 H         1 YPL1        0.0000
    145 H62S        4.3750    5.0220   -2.7060 H         1 YPL1        0.0000
    146 C63         4.4370    6.9970   -3.6330 C.3       1 YPL1        0.0000
    147 H63R        5.4040    7.1750   -3.1050 H         1 YPL1        0.0000
    148 H63S        3.6370    7.4800   -3.0340 H         1 YPL1        0.0000
    149 C64         4.5450    7.6880   -4.9970 C.3       1 YPL1        0.0000
    150 H64R        3.6190    7.5410   -5.5930 H         1 YPL1        0.0000
    151 H64S        5.3850    7.2410   -5.5740 H         1 YPL1        0.0000
    152 C65         4.8030    9.1870   -4.8330 C.3       1 YPL1        0.0000
    153 H65R        5.6220    9.3330   -4.0930 H         1 YPL1        0.0000
    154 H65S        3.8980    9.6820   -4.4220 H         1 YPL1        0.0000
    155 C66         5.2120    9.8640   -6.1390 C.3       1 YPL1        0.0000
    156 H66R        4.4080    9.7520   -6.9000 H         1 YPL1        0.0000
    157 H66S        6.1220    9.3540   -6.5280 H         1 YPL1        0.0000
    158 C67         5.5180   11.3490   -5.9330 C.3       1 YPL1        0.0000
    159 H67R        6.2280   11.4480   -5.0780 H         1 YPL1        0.0000
    160 H67S        4.5790   11.8940   -5.6860 H         1 YPL1        0.0000
    161 C68         6.1700   11.9620   -7.1740 C.3       1 YPL1        0.0000
    162 H68R        5.5120   11.8340   -8.0550 H         1 YPL1        0.0000
    163 H68S        7.0710   11.3450   -7.3820 H         1 YPL1        0.0000
    164 C69         6.4960   13.4180   -6.9630 C.2       1 YPL1        0.0000
    165 H69R        5.6690   14.0480   -6.6020 H         1 YPL1        0.0000
    166 C610        7.7200   13.9400   -7.1440 C.2       1 YPL1        0.0000
    167 H610        7.9160   15.0050   -6.9550 H         1 YPL1        0.0000
    168 C611        8.8750   13.0980   -7.5990 C.3       1 YPL1        0.0000
    169 H611        8.5900   12.5880   -8.5450 H         1 YPL1        0.0000
    170 H611        9.0560   12.2870   -6.8560 H         1 YPL1        0.0000
    171 C612       10.2060   13.8230   -7.8450 C.3       1 YPL1        0.0000
    172 H612       10.5940   14.2020   -6.8740 H         1 YPL1        0.0000
    173 H612       10.0720   14.6700   -8.5590 H         1 YPL1        0.0000
    174 C613       11.2040   12.8170   -8.4250 C.3       1 YPL1        0.0000
    175 H613       10.8270   12.4920   -9.4180 H         1 YPL1        0.0000
    176 H613       11.2250   11.9220   -7.7630 H         1 YPL1        0.0000
    177 C614       12.6400   13.2990   -8.5970 C.3       1 YPL1        0.0000
    178 H614       13.0280   13.6460   -7.6150 H         1 YPL1        0.0000
    179 H614       12.6630   14.1570   -9.3030 H         1 YPL1        0.0000
    180 C615       13.5210   12.1630   -9.1340 C.3       1 YPL1        0.0000
    181 H615       13.1690   11.8930  -10.1580 H         1 YPL1        0.0000
    182 H615       13.3980   11.2680   -8.4750 H         1 YPL1        0.0000
    183 C616       14.9980   12.5350   -9.2040 C.3       1 YPL1        0.0000
    184 H616       15.3760   12.8130   -8.2020 H         1 YPL1        0.0000
    185 H616       15.1580   13.4060   -9.8700 H         1 YPL1        0.0000
    186 H616       15.6030   11.6870   -9.5810 H         1 YPL1        0.0000
    187 C54        -0.1860    6.3450   -4.0890 C.3       1 YPL1        0.0000
    188 H54R       -0.2790    7.0740   -3.2570 H         1 YPL1        0.0000
    189 H54S       -1.2120    6.0580   -4.4120 H         1 YPL1        0.0000
    190 C55         0.5240    7.0140   -5.2760 C.3       1 YPL1        0.0000
    191 H55R        0.6390    6.2640   -6.0910 H         1 YPL1        0.0000
    192 H55S        1.5410    7.3200   -4.9490 H         1 YPL1        0.0000
    193 C56        -0.1680    8.2560   -5.8440 C.3       1 YPL1        0.0000
    194 H56R       -0.1900    9.0450   -5.0680 H         1 YPL1        0.0000
    195 H56S       -1.2250    8.0270   -6.0990 H         1 YPL1        0.0000
    196 C57         0.5750    8.7560   -7.0920 C.3       1 YPL1        0.0000
    197 H57R        0.0980    8.2970   -7.9860 H         1 YPL1        0.0000
    198 H57S        1.6280    8.3920   -7.0560 H         1 YPL1        0.0000
    199 C58         0.6300   10.2800   -7.2540 C.3       1 YPL1        0.0000
    200 H58R        1.3310   10.7050   -6.5030 H         1 YPL1        0.0000
    201 H58S       -0.3720   10.7130   -7.0590 H         1 YPL1        0.0000
    202 C59         1.0890   10.6650   -8.6670 C.3       1 YPL1        0.0000
    203 H59R        0.3280   10.3050   -9.3950 H         1 YPL1        0.0000
    204 H59S        2.0410   10.1370   -8.8940 H         1 YPL1        0.0000
    205 C510        1.2970   12.1690   -8.8760 C.3       1 YPL1        0.0000
    206 H510        2.0420   12.5550   -8.1470 H         1 YPL1        0.0000
    207 H510        0.3400   12.6900   -8.6720 H         1 YPL1        0.0000
    208 C511        1.7700   12.4950  -10.3000 C.3       1 YPL1        0.0000
    209 H511        1.2460   11.8320  -11.0260 H         1 YPL1        0.0000
    210 H511        2.8580   12.2760  -10.3730 H         1 YPL1        0.0000
    211 C512        1.5030   13.9490  -10.7100 C.3       1 YPL1        0.0000
    212 H512        1.7640   14.6380   -9.8770 H         1 YPL1        0.0000
    213 H512        0.4130   14.0590  -10.9040 H         1 YPL1        0.0000
    214 C513        2.2850   14.3590  -11.9650 C.3       1 YPL1        0.0000
    215 H513        1.6940   15.1180  -12.5270 H         1 YPL1        0.0000
    216 H513        2.4000   13.4740  -12.6300 H         1 YPL1        0.0000
    217 C514        3.6590   14.9550  -11.6470 C.3       1 YPL1        0.0000
    218 H514        4.2640   14.2420  -11.0460 H         1 YPL1        0.0000
    219 H514        3.5450   15.8920  -11.0620 H         1 YPL1        0.0000
    220 H514        4.2130   15.1900  -12.5800 H         1 YPL1        0.0000
    221 C33         2.9710    6.7110    1.2470 C.3       1 YPL1        0.0000
    222 H33R        3.9220    7.2320    1.5110 H         1 YPL1        0.0000
    223 O33         2.0110    7.0710    2.2220 O.3       1 YPL1        0.0000
    224 HO33        1.1510    6.6550    2.0790 H         1 YPL1        0.0000
    225 C34         2.5310    7.2130   -0.1410 C.3       1 YPL1        0.0000
    226 H34R        1.5660    6.7440   -0.4260 H         1 YPL1        0.0000
    227 H34S        3.2920    6.8840   -0.8810 H         1 YPL1        0.0000
    228 C35         2.3710    8.7410   -0.2310 C.3       1 YPL1        0.0000
    229 H35R        3.3020    9.2430    0.1130 H         1 YPL1        0.0000
    230 H35S        1.5570    9.0420    0.4670 H         1 YPL1        0.0000
    231 C36         2.0210    9.2210   -1.6480 C.3       1 YPL1        0.0000
    232 H36R        1.6660    8.3510   -2.2470 H         1 YPL1        0.0000
    233 H36S        2.9340    9.6190   -2.1420 H         1 YPL1        0.0000
    234 C37         0.9120   10.2830   -1.6560 C.3       1 YPL1        0.0000
    235 H37R        1.2100   11.1390   -1.0150 H         1 YPL1        0.0000
    236 H37S        0.0060    9.8250   -1.1950 H         1 YPL1        0.0000
    237 C38         0.5430   10.7700   -3.0680 C.3       1 YPL1        0.0000
    238 H38R       -0.5600   10.6730   -3.1860 H         1 YPL1        0.0000
    239 H38S        1.0240   10.1060   -3.8190 H         1 YPL1        0.0000
    240 C39         0.9400   12.2240   -3.3670 C.3       1 YPL1        0.0000
    241 H39R        1.9450   12.2350   -3.8430 H         1 YPL1        0.0000
    242 H39S        1.0170   12.7880   -2.4130 H         1 YPL1        0.0000
    243 C310       -0.0620   12.9650   -4.2700 C.3       1 YPL1        0.0000
    244 H310       -1.0900   12.8620   -3.8560 H         1 YPL1        0.0000
    245 H310       -0.0560   12.4890   -5.2740 H         1 YPL1        0.0000
    246 C311        0.2750   14.4610   -4.3970 C.3       1 YPL1        0.0000
    247 H311        1.3830   14.5500   -4.4660 H         1 YPL1        0.0000
    248 H311       -0.0380   14.9910   -3.4720 H         1 YPL1        0.0000
    249 C312       -0.3260   15.1460   -5.6370 C.3       1 YPL1        0.0000
    250 H312       -0.7760   14.3830   -6.3080 H         1 YPL1        0.0000
    251 H312        0.5010   15.6330   -6.2030 H         1 YPL1        0.0000
    252 C313       -1.3760   16.2200   -5.3270 C.3       1 YPL1        0.0000
    253 H313       -0.9390   16.9740   -4.6340 H         1 YPL1        0.0000
    254 H313       -2.2410   15.7480   -4.8100 H         1 YPL1        0.0000
    255 C314       -1.8700   16.9330   -6.5880 C.3       1 YPL1        0.0000
    256 H314       -2.2710   16.1970   -7.3140 H         1 YPL1        0.0000
    257 H314       -1.0390   17.4810   -7.0780 H         1 YPL1        0.0000
    258 H314       -2.6730   17.6600   -6.3520 H         1 YPL1        0.0000
    259 C11         3.9780    1.5740   -1.2170 C.2       1 YPL1        0.0000
    260 O11         3.7630    2.6940   -1.6820 O.2       1 YPL1        0.0000
    261 C12         4.9440    0.5910   -1.8460 C.3       1 YPL1        0.0000
    262 H12R        4.3150   -0.1830   -2.3370 H         1 YPL1        0.0000
    263 H12S        5.5120    0.0760   -1.0420 H         1 YPL1        0.0000
    264 C13         5.8940    1.2690   -2.8380 C.3       1 YPL1        0.0000
    265 H13R        5.3730    2.0710   -3.4070 H         1 YPL1        0.0000
    266 O13         6.3300    0.2860   -3.7620 O.3       1 YPL1        0.0000
    267 HO13        5.6130   -0.2010   -4.1760 H         1 YPL1        0.0000
    268 C14         7.1260    1.8430   -2.1130 C.3       1 YPL1        0.0000
    269 H14R        7.6680    0.9820   -1.6550 H         1 YPL1        0.0000
    270 H14S        6.7720    2.4840   -1.2790 H         1 YPL1        0.0000
    271 C15         8.1210    2.6350   -2.9870 C.3       1 YPL1        0.0000
    272 H15R        8.5560    1.9440   -3.7430 H         1 YPL1        0.0000
    273 H15S        8.9470    2.9750   -2.3220 H         1 YPL1        0.0000
    274 C16         7.5330    3.8650   -3.7060 C.3       1 YPL1        0.0000
    275 H16R        6.9500    4.4630   -2.9760 H         1 YPL1        0.0000
    276 H16S        6.8360    3.5200   -4.4990 H         1 YPL1        0.0000
    277 C17         8.6290    4.7510   -4.3310 C.3       1 YPL1        0.0000
    278 H17R        9.2030    4.1370   -5.0570 H         1 YPL1        0.0000
    279 H17S        9.3300    5.0390   -3.5200 H         1 YPL1        0.0000
    280 C18         8.1460    6.0410   -5.0280 C.3       1 YPL1        0.0000
    281 H18R        7.5060    6.6130   -4.3230 H         1 YPL1        0.0000
    282 H18S        7.5240    5.7660   -5.9070 H         1 YPL1        0.0000
    283 C19         9.3160    6.9400   -5.4930 C.3       1 YPL1        0.0000
    284 H19R        9.8790    6.3850   -6.2730 H         1 YPL1        0.0000
    285 H19S       10.0070    7.1020   -4.6370 H         1 YPL1        0.0000
    286 C110        8.8930    8.3180   -6.0500 C.3       1 YPL1        0.0000
    287 H110        8.4850    8.9150   -5.2030 H         1 YPL1        0.0000
    288 H110        8.0760    8.1790   -6.7890 H         1 YPL1        0.0000
    289 C111       10.0300    9.1260   -6.7230 C.3       1 YPL1        0.0000
    290 H111       10.8540    9.2430   -5.9860 H         1 YPL1        0.0000
    291 H111        9.6680   10.1540   -6.9480 H         1 YPL1        0.0000
    292 C112       10.6060    8.4910   -8.0090 C.3       1 YPL1        0.0000
    293 H112       10.1470    7.4890   -8.1710 H         1 YPL1        0.0000
    294 H112       11.7070    8.3630   -7.8650 H         1 YPL1        0.0000
    295 C113       10.4040    9.3090   -9.2980 C.3       1 YPL1        0.0000
    296 H113       10.9170    8.7850  -10.1350 H         1 YPL1        0.0000
    297 H113       10.9380   10.2750   -9.1970 H         1 YPL1        0.0000
    298 C114        8.9450    9.5650   -9.6990 C.3       1 YPL1        0.0000
    299 H114        8.3760   10.0370   -8.8680 H         1 YPL1        0.0000
    300 H114        8.4470    8.6240  -10.0190 H         1 YPL1        0.0000
    301 H114        8.9090   10.2570  -10.5640 H         1 YPL1        0.0000
@<TRIPOS>BOND
     1   96   95 1 
     2   98   95 1 
     3   95   97 1 
     4   95   92 1 
     5   94   92 1 
     6   90   89 1 
     7   92   93 1 
     8   92   89 1 
     9   89   91 1 
    10   89   86 1 
    11   88   86 1 
    12   85   83 1 
    13   86   83 1 
    14   86   87 1 
    15   81   80 1 
    16   83   84 1 
    17   83   80 1 
    18  216  214 1 
    19  220  217 1 
    20  132  129 1 
    21  215  214 1 
    22  127  126 1 
    23   80   82 1 
    24   80   77 1 
    25   79   77 1 
    26  214  217 1 
    27  214  211 1 
    28  128  126 1 
    29  217  219 1 
    30  217  218 1 
    31  126  129 1 
    32  126  123 1 
    33  129  131 1 
    34  129  130 1 
    35   75   74 1 
    36   77   74 1 
    37   77   78 1 
    38  122  120 1 
    39  209  208 1 
    40  213  211 1 
    41  121  120 1 
    42   74   76 1 
    43   74   71 1 
    44  211  208 1 
    45  211  212 1 
    46  301  298 1 
    47   73   71 1 
    48  120  123 1 
    49  120  117 1 
    50  210  208 1 
    51  208  205 1 
    52  123  125 1 
    53  123  124 1 
    54  181  180 1 
    55  296  295 1 
    56  300  298 1 
    57   71   72 1 
    58   71   68 1 
    59  185  183 1 
    60  298  295 1 
    61  298  299 1 
    62  186  183 1 
    63  118  117 1 
    64  175  174 1 
    65  203  202 1 
    66  179  177 1 
    67  295  297 1 
    68  295  292 1 
    69  183  180 1 
    70  183  184 1 
    71  117  119 1 
    72  117  114 1 
    73  180  177 1 
    74  180  182 1 
    75  116  114 1 
    76  204  202 1 
    77  205  207 1 
    78  205  202 1 
    79  205  206 1 
    80   69   68 1 
    81  202  199 1 
    82  177  174 1 
    83  177  178 1 
    84   68   70 1 
    85   68   65 1 
    86  173  171 1 
    87  169  168 1 
    88  174  171 1 
    89  174  176 1 
    90  114  115 1 
    91  114  111 1 
    92  293  292 1 
    93   66   65 1 
    94  162  161 1 
    95  292  294 1 
    96  292  289 1 
    97  197  196 1 
    98  171  168 1 
    99  171  172 1 
   100   67   65 1 
   101   65   63 1 
   102  112  111 1 
   103  110  108 1 
   104  168  166 1 
   105  168  170 1 
   106  163  161 1 
   107  256  255 1 
   108  199  196 1 
   109  199  201 1 
   110  199  200 1 
   111  111  108 1 
   112  111  113 1 
   113  161  164 1 
   114  161  158 1 
   115  166  164 2 
   116  166  167 1 
   117  196  198 1 
   118  196  193 1 
   119  257  255 1 
   120  164  165 1 
   121  291  289 1 
   122  156  155 1 
   123  288  286 1 
   124  108  109 1 
   125  108  105 1 
   126  106  105 1 
   127  289  286 1 
   128  289  290 1 
   129  255  258 1 
   130  255  252 1 
   131  157  155 1 
   132  250  249 1 
   133  284  283 1 
   134   63   62 1 
   135   63   64 2 
   136  251  249 1 
   137  155  158 1 
   138  155  152 1 
   139  195  193 1 
   140  191  190 1 
   141  105  107 1 
   142  105  102 1 
   143  286  283 1 
   144  286  287 1 
   145  158  160 1 
   146  158  159 1 
   147  282  280 1 
   148   62   60 1 
   149  193  190 1 
   150  193  194 1 
   151  249  252 1 
   152  249  246 1 
   153  150  149 1 
   154  151  149 1 
   155  283  280 1 
   156  283  285 1 
   157  252  254 1 
   158  252  253 1 
   159  190  192 1 
   160  190  187 1 
   161  245  243 1 
   162  142  141 2 
   163  278  277 1 
   164  280  277 1 
   165  280  281 1 
   166  149  152 1 
   167  149  146 1 
   168  152  154 1 
   169  152  153 1 
   170  100   99 1 
   171  104  102 1 
   172  102   99 1 
   173  102  103 1 
   174   29   27 1 
   175  276  274 1 
   176  247  246 1 
   177   60   99 1 
   178   60   27 1 
   179   60   61 1 
   180  144  143 1 
   181  189  187 1 
   182  246  243 1 
   183  246  248 1 
   184  139  138 1 
   185  277  274 1 
   186  277  279 1 
   187  243  244 1 
   188  243  240 1 
   189   99  101 1 
   190   28   27 1 
   191  267  266 1 
   192  141  143 1 
   193  141  140 1 
   194  187  138 1 
   195  187  188 1 
   196   27   25 1 
   197  241  240 1 
   198  239  237 1 
   199  266  264 1 
   200  272  271 1 
   201  143  146 1 
   202  143  145 1 
   203  274  271 1 
   204  274  275 1 
   205  146  147 1 
   206  146  148 1 
   207  138  140 1 
   208  138  135 1 
   209  134  133 2 
   210  265  264 1 
   211  240  237 1 
   212  240  242 1 
   213  238  237 1 
   214  237  234 1 
   215   21   18 2 
   216  271  273 1 
   217  271  268 1 
   218  264  268 1 
   219  264  261 1 
   220   25   23 1 
   221   25   26 2 
   222  133  135 1 
   223  133   32 am
   224   23   22 1 
   225   19   18 1 
   226  262  261 1 
   227  135  136 1 
   228  135  137 1 
   229  232  231 1 
   230  233  231 1 
   231  268  269 1 
   232  268  270 1 
   233   31   30 1 
   234   18   20 1 
   235   18   17 1 
   236  261  259 1 
   237  261  263 1 
   238   16   15 1 
   239  260  259 2 
   240  234  231 1 
   241  234  236 1 
   242  234  235 1 
   243  231  228 1 
   244   32   30 1 
   245   32   33 1 
   246  259   58 am
   247   30   22 1 
   248   30    9 1 
   249   22   15 1 
   250   22   24 1 
   251   42   41 1 
   252   15   17 1 
   253   15    6 1 
   254   57   56 1 
   255  227  225 1 
   256  226  225 1 
   257   45   47 2 
   258    5    4 1 
   259  228  225 1 
   260  228  229 1 
   261  228  230 1 
   262   58   56 1 
   263   58   59 1 
   264  225  221 1 
   265   11    9 1 
   266   11   12 1 
   267   56   41 1 
   268   56   48 1 
   269   41   40 1 
   270   41   43 1 
   271    9    7 1 
   272    9   10 1 
   273   40   38 1 
   274    7    6 1 
   275   35   34 1 
   276    6    4 1 
   277    6    8 1 
   278   54   53 1 
   279    4    1 1 
   280    4    2 1 
   281   46   47 1 
   282   47   43 1 
   283   47   44 1 
   284   13   12 1 
   285   12   38 1 
   286   12   14 1 
   287   52   51 2 
   288   51   50 1 
   289   51   53 1 
   290   38   34 1 
   291   38   39 1 
   292   34   48 1 
   293   34   36 1 
   294   48   50 1 
   295   48   49 1 
   296  221   53 1 
   297  221  222 1 
   298  221  223 1 
   299   53   55 1 
   300    3    2 1 
   301  224  223 1 
   302   37   36 1 
