@<TRIPOS>MOLECULE
C:\Users\Praveer\PycharmProjects\pdb_to_mol2_converter\data\pdb\yt2s.pdb
   18    19     0     0     0
SMALL
GASTEIGER

@<TRIPOS>ATOM
      1 C1         -0.0090    2.4240   -0.0000 C.ar      1 YT21        0.0000
      2 C2          1.3890    2.4260    0.0000 C.ar      1 YT21        0.0000
      3 C3          2.0930    1.2140    0.0000 C.ar      1 YT21        0.0000
      4 C4          1.3760    0.0150    0.0000 C.ar      1 YT21        0.0000
      5 C5         -0.0230   -0.0050   -0.0000 C.ar      1 YT21        0.0000
      6 C6         -0.7170    1.2170   -0.0000 C.ar      1 YT21        0.0000
      7 C8         -0.6920   -1.3040   -0.0000 C.ar      1 YT21        0.0000
      8 S8         -2.3230   -1.5980   -0.0000 S.2       1 YT21        0.0000
      9 N9          0.1670   -2.4030   -0.0000 N.ar      1 YT21        0.0000
     10 H9         -0.2420   -3.3210    0.0000 H         1 YT21        0.0000
     11 C10         1.5390   -2.3670    0.0000 C.ar      1 YT21        0.0000
     12 O10         2.2170   -3.3880   -0.0000 O.2       1 YT21        0.0000
     13 N11         2.1230   -1.1250    0.0000 N.ar      1 YT21        0.0000
     14 H11         3.1260   -1.1370    0.0000 H         1 YT21        0.0000
     15 H1         -0.5490    3.3620   -0.0000 H         1 YT21        0.0000
     16 H2          1.9260    3.3650    0.0000 H         1 YT21        0.0000
     17 H3          3.1720    1.2370    0.0000 H         1 YT21        0.0000
     18 H6         -1.7980    1.2460   -0.0000 H         1 YT21        0.0000
@<TRIPOS>BOND
     1    1    2 ar
     2    1    6 ar
     3    1   15 1 
     4    2    3 ar
     5    2   16 1 
     6    3    4 ar
     7    3   17 1 
     8    4    5 ar
     9    4   13 ar
    10    5    6 ar
    11    5    7 ar
    12    6   18 1 
    13    7    8 2 
    14    7    9 ar
    15    9   10 1 
    16    9   11 ar
    17   11   12 2 
    18   11   13 ar
    19   13   14 1 
