@<TRIPOS>MOLECULE
C:\Users\Praveer\PycharmProjects\pdb_to_mol2_converter\data\pdb\yt4s.pdb
   18    19     0     0     0
SMALL
GASTEIGER

@<TRIPOS>ATOM
      1 C1         -0.0210    2.4110   -0.0000 C.ar      1 YT41        0.0000
      2 C2          1.3780    2.4180    0.0000 C.ar      1 YT41        0.0000
      3 C3          2.0880    1.2100    0.0000 C.ar      1 YT41        0.0000
      4 C4          1.3790    0.0040    0.0000 C.ar      1 YT41        0.0000
      5 C5         -0.0130   -0.0110   -0.0000 C.ar      1 YT41        0.0000
      6 C6         -0.7220    1.2000   -0.0000 C.ar      1 YT41        0.0000
      7 H1         -0.5650    3.3460   -0.0000 H         1 YT41        0.0000
      8 H2          1.9100    3.3600    0.0000 H         1 YT41        0.0000
      9 H3          3.1680    1.2370    0.0000 H         1 YT41        0.0000
     10 H6         -1.8050    1.2080   -0.0000 H         1 YT41        0.0000
     11 C8         -0.6690   -1.2980   -0.0000 C.ar      1 YT41        0.0000
     12 O8         -1.8840   -1.4970   -0.0000 O.2       1 YT41        0.0000
     13 N9          0.1710   -2.4020   -0.0000 N.ar      1 YT41        0.0000
     14 H9         -0.3130   -3.2840   -0.0000 H         1 YT41        0.0000
     15 C10         1.5570   -2.4160    0.0000 C.ar      1 YT41        0.0000
     16 S10         2.4470   -3.8000    0.0000 S.2       1 YT41        0.0000
     17 N11         2.1230   -1.1450    0.0000 N.ar      1 YT41        0.0000
     18 H11         3.1300   -1.1110    0.0000 H         1 YT41        0.0000
@<TRIPOS>BOND
     1    1    2 ar
     2    1    6 ar
     3    1    7 1 
     4    2    3 ar
     5    2    8 1 
     6    3    4 ar
     7    3    9 1 
     8    4    5 ar
     9    4   17 ar
    10    5    6 ar
    11    5   11 ar
    12    6   10 1 
    13   11   12 2 
    14   11   13 ar
    15   13   14 1 
    16   13   15 ar
    17   15   16 2 
    18   15   17 ar
    19   17   18 1 
