@<TRIPOS>MOLECULE
C:\Users\Praveer\PycharmProjects\pdb_to_mol2_converter\data\pdb\ythy.pdb
   18    19     0     0     0
SMALL
GASTEIGER

@<TRIPOS>ATOM
      1 C1         -0.0230    2.4100   -0.0030 C.ar      1 YTH1        0.0000
      2 C2          1.3760    2.4230   -0.0010 C.ar      1 YTH1        0.0000
      3 C3          2.0910    1.2160    0.0020 C.ar      1 YTH1        0.0000
      4 C4          1.3860    0.0100    0.0030 C.ar      1 YTH1        0.0000
      5 C5         -0.0060   -0.0110    0.0010 C.ar      1 YTH1        0.0000
      6 C6         -0.7210    1.1970   -0.0030 C.ar      1 YTH1        0.0000
      7 H6         -1.8030    1.2000   -0.0050 H         1 YTH1        0.0000
      8 C8         -0.6550   -1.3040    0.0020 C.ar      1 YTH1        0.0000
      9 N9          0.1800   -2.3980    0.0060 N.ar      1 YTH1        0.0000
     10 C10         1.5400   -2.3720    0.0080 C.ar      1 YTH1        0.0000
     11 N11         2.1270   -1.1340    0.0070 N.ar      1 YTH1        0.0000
     12 H11         3.1290   -1.1540    0.0090 H         1 YTH1        0.0000
     13 O10         2.2040   -3.3980    0.0110 O.2       1 YTH1        0.0000
     14 H9         -0.2580   -3.2970    0.0060 H         1 YTH1        0.0000
     15 O8         -1.8670   -1.5130   -0.0000 O.2       1 YTH1        0.0000
     16 H3          3.1700    1.2460    0.0040 H         1 YTH1        0.0000
     17 H2          1.9050    3.3660   -0.0010 H         1 YTH1        0.0000
     18 H1         -0.5700    3.3430   -0.0060 H         1 YTH1        0.0000
@<TRIPOS>BOND
     1   18    1 1 
     2    7    6 1 
     3    1    6 ar
     4    1    2 ar
     5    6    5 ar
     6    2   17 1 
     7    2    3 ar
     8   15    8 2 
     9    5    8 ar
    10    5    4 ar
    11    3    4 ar
    12    3   16 1 
    13    8    9 ar
    14    4   11 ar
    15    9   14 1 
    16    9   10 ar
    17   11   10 ar
    18   11   12 1 
    19   10   13 2 
