@<TRIPOS>MOLECULE
C:\Users\Praveer\PycharmProjects\pdb_to_mol2_converter\data\pdb\yts2.pdb
   18    19     0     0     0
SMALL
GASTEIGER

@<TRIPOS>ATOM
      1 C1          0.0030    2.4430   -0.0000 C.ar      1 YTS1        0.0000
      2 C2          1.4030    2.4340    0.0000 C.ar      1 YTS1        0.0000
      3 C3          2.0940    1.2140    0.0000 C.ar      1 YTS1        0.0000
      4 C4          1.3870    0.0060    0.0000 C.ar      1 YTS1        0.0000
      5 C5         -0.0350    0.0070   -0.0000 C.ar      1 YTS1        0.0000
      6 C6         -0.7120    1.2380   -0.0000 C.ar      1 YTS1        0.0000
      7 H1         -0.5300    3.3850   -0.0000 H         1 YTS1        0.0000
      8 H2          1.9480    3.3680    0.0000 H         1 YTS1        0.0000
      9 H3          3.1740    1.2120    0.0000 H         1 YTS1        0.0000
     10 H6         -1.7930    1.2690   -0.0000 H         1 YTS1        0.0000
     11 C8         -0.7500   -1.2710   -0.0000 C.ar      1 YTS1        0.0000
     12 S8         -2.3810   -1.5630   -0.0000 S.2       1 YTS1        0.0000
     13 N9          0.0970   -2.3840   -0.0000 N.ar      1 YTS1        0.0000
     14 H9         -0.3640   -3.2800   -0.0000 H         1 YTS1        0.0000
     15 C10         1.4750   -2.4460    0.0000 C.ar      1 YTS1        0.0000
     16 S10         2.3220   -3.8540    0.0000 S.2       1 YTS1        0.0000
     17 N11         2.0790   -1.2060    0.0000 N.ar      1 YTS1        0.0000
     18 H11         3.0820   -1.2610    0.0000 H         1 YTS1        0.0000
@<TRIPOS>BOND
     1    1    2 ar
     2    1    6 ar
     3    1    7 1 
     4    2    3 ar
     5    2    8 1 
     6    3    4 ar
     7    3    9 1 
     8    4    5 ar
     9    4   17 ar
    10    5    6 ar
    11    5   11 ar
    12    6   10 1 
    13   11   12 2 
    14   11   13 ar
    15   13   14 1 
    16   13   15 ar
    17   15   16 2 
    18   15   17 ar
    19   17   18 1 
