@<TRIPOS>MOLECULE
C:\Users\Praveer\PycharmProjects\pdb_to_mol2_converter\data\pdb\zdol.pdb
   15    16     0     0     0
SMALL
GASTEIGER

@<TRIPOS>ATOM
      1 C1         -0.0820    0.0050   -0.0600 C.ar      1 ZDO1        0.0000
      2 O1         -0.5950   -1.2780   -0.0950 O.3       1 ZDO1        0.0000
      3 C2          0.5420   -2.0830   -0.4360 C.3       1 ZDO1        0.0000
      4 H21         0.5230   -2.2910   -1.5170 H         1 ZDO1        0.0000
      5 H22         0.5180   -3.0230    0.1350 H         1 ZDO1        0.0000
      6 O2          1.7370   -1.3530   -0.1220 O.3       1 ZDO1        0.0000
      7 C3          1.3090   -0.0400   -0.0750 C.ar      1 ZDO1        0.0000
      8 C4          2.0600    1.1160   -0.0420 C.ar      1 ZDO1        0.0000
      9 H4          3.1360    1.0450   -0.0500 H         1 ZDO1        0.0000
     10 C5          1.3940    2.3510    0.0070 C.ar      1 ZDO1        0.0000
     11 H5          1.9590    3.2730    0.0350 H         1 ZDO1        0.0000
     12 C6         -0.0100    2.3970    0.0220 C.ar      1 ZDO1        0.0000
     13 H6         -0.5140    3.3530    0.0630 H         1 ZDO1        0.0000
     14 C7         -0.7560    1.2080   -0.0100 C.ar      1 ZDO1        0.0000
     15 H7         -1.8340    1.2060    0.0060 H         1 ZDO1        0.0000
@<TRIPOS>BOND
     1    4    3 1 
     2    3    6 1 
     3    3    2 1 
     4    3    5 1 
     5    6    7 1 
     6    2    1 1 
     7    7    1 ar
     8    7    8 ar
     9    1   14 ar
    10    9    8 1 
    11    8   10 ar
    12   14   15 1 
    13   14   12 ar
    14   10   12 ar
    15   10   11 1 
    16   12   13 1 
