@<TRIPOS>MOLECULE
C:\Users\Praveer\PycharmProjects\pdb_to_mol2_converter\data\pdb\zfur.pdb
   15    16     0     0     0
SMALL
GASTEIGER

@<TRIPOS>ATOM
      1 O1         -0.0190    0.0080   -0.0000 O.2       1 ZFU1        0.0000
      2 C2          1.3590   -0.0050   -0.0000 C.ar      1 ZFU1        0.0000
      3 H2          1.8550   -0.9710   -0.0000 H         1 ZFU1        0.0000
      4 C3          1.8860    1.2550   -0.0000 C.ar      1 ZFU1        0.0000
      5 H3          2.9280    1.5310   -0.0000 H         1 ZFU1        0.0000
      6 C4          0.7630    2.1390    0.0000 C.ar      1 ZFU1        0.0000
      7 C5          0.6570    3.5210    0.0000 C.ar      1 ZFU1        0.0000
      8 H5          1.5520    4.1260    0.0000 H         1 ZFU1        0.0000
      9 C6         -0.6190    4.1050    0.0000 C.ar      1 ZFU1        0.0000
     10 H6         -0.7210    5.1840    0.0000 H         1 ZFU1        0.0000
     11 C7         -1.7680    3.3020    0.0000 C.ar      1 ZFU1        0.0000
     12 H7         -2.7480    3.7630    0.0000 H         1 ZFU1        0.0000
     13 C8         -1.6460    1.9050    0.0000 C.ar      1 ZFU1        0.0000
     14 H8         -2.5080    1.2580    0.0000 H         1 ZFU1        0.0000
     15 C9         -0.3830    1.3310    0.0000 C.ar      1 ZFU1        0.0000
@<TRIPOS>BOND
     1    1    2 ar
     2    1   15 ar
     3    2    3 1 
     4    2    4 ar
     5    4    5 1 
     6    4    6 ar
     7    6    7 ar
     8    6   15 ar
     9    7    8 1 
    10    7    9 ar
    11    9   10 1 
    12    9   11 ar
    13   11   12 1 
    14   11   13 ar
    15   13   14 1 
    16   13   15 ar
