@<TRIPOS>MOLECULE
C:\Users\Praveer\PycharmProjects\pdb_to_mol2_converter\data\pdb\zimi.pdb
   15    16     0     0     0
SMALL
GASTEIGER

@<TRIPOS>ATOM
      1 N1          1.8830    1.2330   -0.0000 N.ar      1 ZIM1        0.0000
      2 H1          2.8580    1.4760    0.0000 H         1 ZIM1        0.0000
      3 C2          1.3300   -0.0240    0.0000 C.ar      1 ZIM1        0.0000
      4 H2          1.9330   -0.9370    0.0000 H         1 ZIM1        0.0000
      5 N3          0.0080   -0.0080    0.0000 N.ar      1 ZIM1        0.0000
      6 C4         -0.3250    1.3230   -0.0000 C.ar      1 ZIM1        0.0000
      7 C5         -1.5690    1.9210   -0.0000 C.ar      1 ZIM1        0.0000
      8 H5         -2.4370    1.2830   -0.0000 H         1 ZIM1        0.0000
      9 C6         -1.6690    3.3200   -0.0000 C.ar      1 ZIM1        0.0000
     10 H6         -2.6440    3.7950   -0.0000 H         1 ZIM1        0.0000
     11 C7         -0.5070    4.1030   -0.0000 C.ar      1 ZIM1        0.0000
     12 H7         -0.5960    5.1840   -0.0000 H         1 ZIM1        0.0000
     13 C8          0.7610    3.5020   -0.0000 C.ar      1 ZIM1        0.0000
     14 H8          1.6610    4.1000   -0.0000 H         1 ZIM1        0.0000
     15 C9          0.8370    2.1170   -0.0000 C.ar      1 ZIM1        0.0000
@<TRIPOS>BOND
     1    1    2 1 
     2    1    3 ar
     3    1   15 ar
     4    3    4 1 
     5    3    5 ar
     6    5    6 ar
     7    6    7 ar
     8    6   15 ar
     9    7    8 1 
    10    7    9 ar
    11    9   10 1 
    12    9   11 ar
    13   11   12 1 
    14   11   13 ar
    15   13   14 1 
    16   13   15 ar
