@<TRIPOS>MOLECULE
C:\Users\Praveer\PycharmProjects\pdb_to_mol2_converter\data\pdb\zoic.pdb
   15    15     0     0     0
SMALL
GASTEIGER

@<TRIPOS>ATOM
      1 C2          1.3780   -0.0000    0.0670 C.ar      1 ZOI1        0.0000
      2 H2          1.9140   -0.9360    0.1310 H         1 ZOI1        0.0000
      3 C3          2.0870    1.2040    0.1420 C.ar      1 ZOI1        0.0000
      4 H3          3.1610    1.1930    0.2610 H         1 ZOI1        0.0000
      5 C4          1.4040    2.4240    0.0580 C.ar      1 ZOI1        0.0000
      6 H4          1.9520    3.3540    0.1120 H         1 ZOI1        0.0000
      7 C5          0.0130    2.4390   -0.0940 C.ar      1 ZOI1        0.0000
      8 H5         -0.5130    3.3820   -0.1570 H         1 ZOI1        0.0000
      9 C6         -0.6960    1.2350   -0.1680 C.ar      1 ZOI1        0.0000
     10 H6         -1.7700    1.2590   -0.2870 H         1 ZOI1        0.0000
     11 C1         -0.0230   -0.0060   -0.0930 C.ar      1 ZOI1        0.0000
     12 C7         -0.7260   -1.3300   -0.1860 C.2       1 ZOI1        0.0000
     13 O7         -0.1600   -2.4130   -0.1240 O.2       1 ZOI1        0.0000
     14 O8         -2.1050   -1.3230   -0.3580 O.3       1 ZOI1        0.0000
     15 H8         -2.4200   -2.2260   -0.4060 H         1 ZOI1        0.0000
@<TRIPOS>BOND
     1   15   14 1 
     2   14   12 1 
     3   10    9 1 
     4   12   13 2 
     5   12   11 1 
     6    9    7 ar
     7    9   11 ar
     8    8    7 1 
     9    7    5 ar
    10   11    1 ar
    11    5    6 1 
    12    5    3 ar
    13    1    2 1 
    14    1    3 ar
    15    3    4 1 
