@<TRIPOS>MOLECULE
C:\Users\Praveer\PycharmProjects\pdb_to_mol2_converter\data\pdb\zthp.pdb
   15    16     0     0     0
SMALL
GASTEIGER

@<TRIPOS>ATOM
      1 S1          0.1550   -0.4010   -0.0000 S.2       1 ZTH1        0.0000
      2 C2          1.8520   -0.1020   -0.0000 C.ar      1 ZTH1        0.0000
      3 H2          2.5410   -0.9400   -0.0000 H         1 ZTH1        0.0000
      4 C3          2.1410    1.2450   -0.0000 C.ar      1 ZTH1        0.0000
      5 H3          3.1440    1.6460   -0.0000 H         1 ZTH1        0.0000
      6 C4          0.9550    2.0790    0.0000 C.ar      1 ZTH1        0.0000
      7 C5          0.8200    3.4630    0.0000 C.ar      1 ZTH1        0.0000
      8 H5          1.7090    4.0770    0.0000 H         1 ZTH1        0.0000
      9 C6         -0.4540    4.0520    0.0000 C.ar      1 ZTH1        0.0000
     10 H6         -0.5560    5.1310    0.0000 H         1 ZTH1        0.0000
     11 C7         -1.5980    3.2450    0.0000 C.ar      1 ZTH1        0.0000
     12 H7         -2.5800    3.7010    0.0000 H         1 ZTH1        0.0000
     13 C8         -1.4730    1.8500    0.0000 C.ar      1 ZTH1        0.0000
     14 H8         -2.3410    1.2080    0.0000 H         1 ZTH1        0.0000
     15 C9         -0.2060    1.2900    0.0000 C.ar      1 ZTH1        0.0000
@<TRIPOS>BOND
     1    1    2 ar
     2    1   15 ar
     3    2    3 1 
     4    2    4 ar
     5    4    5 1 
     6    4    6 ar
     7    6    7 ar
     8    6   15 ar
     9    7    8 1 
    10    7    9 ar
    11    9   10 1 
    12    9   11 ar
    13   11   12 1 
    14   11   13 ar
    15   13   14 1 
    16   13   15 ar
