@<TRIPOS>MOLECULE
C:\Users\Praveer\PycharmProjects\pdb_to_mol2_converter\data\pdb\zthz.pdb
   14    15     0     0     0
SMALL
GASTEIGER

@<TRIPOS>ATOM
      1 S1          0.1330   -0.2940   -0.0000 S.2       1 ZTH1        0.0000
      2 C2          1.8390   -0.1060   -0.0000 C.ar      1 ZTH1        0.0000
      3 H2          2.4530   -1.0130   -0.0000 H         1 ZTH1        0.0000
      4 N3          2.3210    1.1430   -0.0000 N.ar      1 ZTH1        0.0000
      5 C4          1.2560    2.0560    0.0000 C.ar      1 ZTH1        0.0000
      6 C5          1.3140    3.4390    0.0000 C.ar      1 ZTH1        0.0000
      7 H5          2.2950    3.8890    0.0000 H         1 ZTH1        0.0000
      8 C6          0.1380    4.2070    0.0000 C.ar      1 ZTH1        0.0000
      9 H6          0.1900    5.2940    0.0000 H         1 ZTH1        0.0000
     10 C7         -1.1050    3.5640    0.0000 C.ar      1 ZTH1        0.0000
     11 H7         -2.0140    4.1590    0.0000 H         1 ZTH1        0.0000
     12 C8         -1.1890    2.1640    0.0000 C.ar      1 ZTH1        0.0000
     13 H8         -2.1410    1.6520    0.0000 H         1 ZTH1        0.0000
     14 C9         -0.0110    1.4310    0.0000 C.ar      1 ZTH1        0.0000
@<TRIPOS>BOND
     1    1    2 ar
     2    1   14 ar
     3    2    3 1 
     4    2    4 ar
     5    4    5 ar
     6    5    6 ar
     7    5   14 ar
     8    6    7 1 
     9    6    8 ar
    10    8    9 1 
    11    8   10 ar
    12   10   11 1 
    13   10   12 ar
    14   12   13 1 
    15   12   14 ar
