@<TRIPOS>MOLECULE
C:\Users\Praveer\PycharmProjects\pdb_to_mol2_converter\data\pdb\2amf.pdb
   20    20     0     0     0
SMALL
GASTEIGER

@<TRIPOS>ATOM
      1 CM          1.9740    1.3410   -0.0000 C.3       1 2AM1        0.0000
      2 HM1         3.0800    1.2250    0.0000 H         1 2AM1        0.0000
      3 HM2         1.6730    1.9070    0.9070 H         1 2AM1        0.0000
      4 HM3         1.6730    1.9070   -0.9070 H         1 2AM1        0.0000
      5 C           1.3430    0.0010    0.0000 C.2       1 2AM1        0.0000
      6 O           2.0410   -1.0030    0.0000 O.2       1 2AM1        0.0000
      7 N           0.0010    0.0020    0.0000 N.am      1 2AM1        0.0000
      8 H          -0.4760    0.8730   -0.0000 H         1 2AM1        0.0000
      9 CZ         -0.9280   -1.0770    0.0000 C.ar      1 2AM1        0.0000
     10 CD1        -2.2950   -0.7140    0.0000 C.ar      1 2AM1        0.0000
     11 OD         -2.6840    0.6510    0.0000 O.3       1 2AM1        0.0000
     12 HOD        -3.6440    0.6800    0.0000 H         1 2AM1        0.0000
     13 CE1        -3.2890   -1.7000    0.0000 C.ar      1 2AM1        0.0000
     14 HE1        -4.3340   -1.4280    0.0000 H         1 2AM1        0.0000
     15 CP         -2.9320   -3.0550    0.0000 C.ar      1 2AM1        0.0000
     16 HP         -3.6980   -3.8180    0.0000 H         1 2AM1        0.0000
     17 CE2        -1.5820   -3.4220    0.0000 C.ar      1 2AM1        0.0000
     18 HE2        -1.3040   -4.4670    0.0000 H         1 2AM1        0.0000
     19 CD2        -0.5850   -2.4360    0.0000 C.ar      1 2AM1        0.0000
     20 HD2         0.4480   -2.7450    0.0000 H         1 2AM1        0.0000
@<TRIPOS>BOND
     1    4    1 1 
     2    1    2 1 
     3    1    5 1 
     4    1    3 1 
     5    5    6 2 
     6    5    7 am
     7    7    8 1 
     8    7    9 1 
     9    9   10 ar
    10    9   19 ar
    11   10   11 1 
    12   10   13 ar
    13   11   12 1 
    14   13   14 1 
    15   13   15 ar
    16   15   16 1 
    17   15   17 ar
    18   17   18 1 
    19   17   19 ar
    20   19   20 1 
