@<TRIPOS>MOLECULE
C:\Users\Praveer\PycharmProjects\pdb_to_mol2_converter\data\pdb\plpg.pdb
  125   124     0     0     0
SMALL
GASTEIGER

@<TRIPOS>ATOM
      1 C13         0.0090    0.0570    0.0210 C.3       1 PLP1        0.0000
      2 H13A       -0.3760    0.2620   -1.0040 H         1 PLP1        0.0000
      3 H13B       -0.3580   -0.9410    0.3400 H         1 PLP1        0.0000
      4 OC3        -0.4780    1.0730    0.8980 O.3       1 PLP1        0.0000
      5 HO3        -0.0860    1.8810    0.5290 H         1 PLP1        0.0000
      6 C12         1.5570    0.0610   -0.0130 C.3       1 PLP1        0.0000
      7 H12A        1.9330   -0.4280    0.9130 H         1 PLP1        0.0000
      8 OC2         2.0110   -0.7050   -1.1250 O.3       1 PLP1        0.0000
      9 HO2         1.8620   -0.1200   -1.9030 H         1 PLP1        0.0000
     10 C11         2.1600    1.4940   -0.0720 C.3       1 PLP1        0.0000
     11 H11A        3.2270    1.4450   -0.3970 H         1 PLP1        0.0000
     12 H11B        2.1710    1.8880    0.9690 H         1 PLP1        0.0000
     13 P           1.6350    2.4930   -2.4240 P.3       1 PLP1        0.0000
     14 O13         0.7800    3.5540   -2.9940 O.3       1 PLP1        0.0000
     15 O14         1.5500    1.1330   -2.9990 O.2       1 PLP1        0.0000
     16 O12         1.3650    2.3870   -0.8640 O.3       1 PLP1        0.0000
     17 O11         3.1410    2.9800   -2.4550 O.3       1 PLP1        0.0000
     18 C1          3.5150    4.2630   -1.9470 C.3       1 PLP1        0.0000
     19 HA          4.2240    4.1240   -1.1030 H         1 PLP1        0.0000
     20 HB          2.6460    4.8480   -1.5570 H         1 PLP1        0.0000
     21 C2          4.1890    5.1100   -3.0600 C.3       1 PLP1        0.0000
     22 HS          5.1550    4.6250   -3.3420 H         1 PLP1        0.0000
     23 O21         4.3870    6.4560   -2.5820 O.3       1 PLP1        0.0000
     24 C21         5.3860    6.5970   -1.7290 C.2       1 PLP1        0.0000
     25 O22         6.2090    5.7490   -1.4390 O.2       1 PLP1        0.0000
     26 C22         5.3370    7.9970   -1.1120 C.3       1 PLP1        0.0000
     27 H2R         5.3960    7.8580   -0.0120 H         1 PLP1        0.0000
     28 H2S         4.3670    8.4750   -1.3550 H         1 PLP1        0.0000
     29 C3          3.3160    5.1600   -4.3480 C.3       1 PLP1        0.0000
     30 HX          2.3260    5.5740   -4.0540 H         1 PLP1        0.0000
     31 HY          3.1230    4.1240   -4.7130 H         1 PLP1        0.0000
     32 O31         3.8920    6.0050   -5.3740 O.3       1 PLP1        0.0000
     33 C31         4.8200    5.4190   -6.1170 C.2       1 PLP1        0.0000
     34 O32         5.1860    4.2620   -6.0300 O.2       1 PLP1        0.0000
     35 C32         5.3870    6.4370   -7.1040 C.3       1 PLP1        0.0000
     36 H2X         5.9150    7.2160   -6.5160 H         1 PLP1        0.0000
     37 H2Y         4.5420    6.9070   -7.6470 H         1 PLP1        0.0000
     38 C23         6.5080    8.8920   -1.5720 C.3       1 PLP1        0.0000
     39 H3R         7.4820    8.3830   -1.3950 H         1 PLP1        0.0000
     40 H3S         6.5020    9.8200   -0.9550 H         1 PLP1        0.0000
     41 C24         6.3930    9.3020   -3.0470 C.3       1 PLP1        0.0000
     42 H4R         5.3820    9.7260   -3.2360 H         1 PLP1        0.0000
     43 H4S         6.5020    8.3970   -3.6860 H         1 PLP1        0.0000
     44 C25         7.4490   10.3370   -3.4580 C.3       1 PLP1        0.0000
     45 H5R         8.4500    9.9700   -3.1390 H         1 PLP1        0.0000
     46 H5S         7.2540   11.2940   -2.9250 H         1 PLP1        0.0000
     47 C26         7.4630   10.5890   -4.9730 C.3       1 PLP1        0.0000
     48 H6R         6.4390   10.8820   -5.2980 H         1 PLP1        0.0000
     49 H6S         7.7140    9.6370   -5.4920 H         1 PLP1        0.0000
     50 C27         8.4490   11.6840   -5.4220 C.3       1 PLP1        0.0000
     51 H7R         8.0800   12.6650   -5.0440 H         1 PLP1        0.0000
     52 H7S         8.4380   11.7330   -6.5350 H         1 PLP1        0.0000
     53 C28         9.9070   11.5050   -4.9480 C.3       1 PLP1        0.0000
     54 H8R         9.9380   11.6060   -3.8400 H         1 PLP1        0.0000
     55 H8S        10.4950   12.3600   -5.3490 H         1 PLP1        0.0000
     56 C29        10.4990   10.1770   -5.3560 C.2       1 PLP1        0.0000
     57 H9R        10.0870    9.3150   -4.8080 H         1 PLP1        0.0000
     58 C210       11.4360    9.9470   -6.2970 C.2       1 PLP1        0.0000
     59 H10R       11.7560    8.9070   -6.4660 H         1 PLP1        0.0000
     60 C211       12.1270   10.9630   -7.1760 C.3       1 PLP1        0.0000
     61 H11R       13.2270   10.8230   -7.0880 H         1 PLP1        0.0000
     62 H11S       11.9340   11.9980   -6.8210 H         1 PLP1        0.0000
     63 C212       11.7220   10.8020   -8.6230 C.2       1 PLP1        0.0000
     64 H12R       11.6540    9.7620   -8.9810 H         1 PLP1        0.0000
     65 C213       11.4260   11.7950   -9.4840 C.2       1 PLP1        0.0000
     66 H13R       11.1250   11.5350  -10.5100 H         1 PLP1        0.0000
     67 C214       11.4660   13.2740   -9.1890 C.3       1 PLP1        0.0000
     68 H14R       11.7830   13.8330  -10.0980 H         1 PLP1        0.0000
     69 H14S       12.2210   13.5040   -8.4040 H         1 PLP1        0.0000
     70 C215       10.1070   13.8320   -8.7190 C.3       1 PLP1        0.0000
     71 H15R       10.2410   14.9100   -8.4730 H         1 PLP1        0.0000
     72 H15S        9.8000   13.3120   -7.7850 H         1 PLP1        0.0000
     73 C216        8.9930   13.7150   -9.7730 C.3       1 PLP1        0.0000
     74 H16R        8.7560   12.6410   -9.9390 H         1 PLP1        0.0000
     75 H16S        9.3690   14.1330  -10.7340 H         1 PLP1        0.0000
     76 C217        7.7020   14.4570   -9.3910 C.3       1 PLP1        0.0000
     77 H17R        6.9780   14.3560  -10.2320 H         1 PLP1        0.0000
     78 H17S        7.9330   15.5410   -9.2820 H         1 PLP1        0.0000
     79 C218        7.0380   13.9560   -8.1050 C.3       1 PLP1        0.0000
     80 H18R        7.7080   14.1100   -7.2320 H         1 PLP1        0.0000
     81 H18S        6.8090   12.8720   -8.1850 H         1 PLP1        0.0000
     82 H18T        6.0910   14.5050   -7.9180 H         1 PLP1        0.0000
     83 C33         6.3650    5.7790   -8.1030 C.3       1 PLP1        0.0000
     84 H3X         5.8230    5.0150   -8.7070 H         1 PLP1        0.0000
     85 H3Y         7.1710    5.2500   -7.5430 H         1 PLP1        0.0000
     86 C34         7.0140    6.7990   -9.0460 C.3       1 PLP1        0.0000
     87 H4X         7.5720    7.5490   -8.4410 H         1 PLP1        0.0000
     88 H4Y         6.2190    7.3390   -9.6070 H         1 PLP1        0.0000
     89 C35         7.9780    6.1460  -10.0470 C.3       1 PLP1        0.0000
     90 H5X         7.4140    5.4180  -10.6730 H         1 PLP1        0.0000
     91 H5Y         8.7570    5.5790   -9.4880 H         1 PLP1        0.0000
     92 C36         8.6620    7.1720  -10.9610 C.3       1 PLP1        0.0000
     93 H6X         9.2300    7.8950  -10.3340 H         1 PLP1        0.0000
     94 H6Y         7.8820    7.7420  -11.5130 H         1 PLP1        0.0000
     95 C37         9.6180    6.5250  -11.9740 C.3       1 PLP1        0.0000
     96 H7X         9.0480    5.8020  -12.6000 H         1 PLP1        0.0000
     97 H7Y        10.4000    5.9530  -11.4260 H         1 PLP1        0.0000
     98 C38        10.2910    7.5600  -12.8860 C.3       1 PLP1        0.0000
     99 H8X        10.8690    8.2760  -12.2600 H         1 PLP1        0.0000
    100 H8Y         9.5020    8.1360  -13.4190 H         1 PLP1        0.0000
    101 C39        11.2300    6.9270  -13.9240 C.3       1 PLP1        0.0000
    102 H9X        10.6510    6.2080  -14.5460 H         1 PLP1        0.0000
    103 H9Y        12.0270    6.3560  -13.3970 H         1 PLP1        0.0000
    104 C310       11.8810    7.9710  -14.8430 C.3       1 PLP1        0.0000
    105 H10X       12.4670    8.6870  -14.2240 H         1 PLP1        0.0000
    106 H10Y       11.0810    8.5470  -15.3600 H         1 PLP1        0.0000
    107 C311       12.8050    7.3450  -15.8970 C.3       1 PLP1        0.0000
    108 H11X       12.2180    6.6260  -16.5130 H         1 PLP1        0.0000
    109 H11Y       13.6100    6.7730  -15.3840 H         1 PLP1        0.0000
    110 C312       13.4410    8.3930  -16.8210 C.3       1 PLP1        0.0000
    111 H12X       14.0300    9.1110  -16.2070 H         1 PLP1        0.0000
    112 H12Y       12.6330    8.9670  -17.3300 H         1 PLP1        0.0000
    113 C313       14.3580    7.7740  -17.8850 C.3       1 PLP1        0.0000
    114 H13X       13.7710    7.0550  -18.4990 H         1 PLP1        0.0000
    115 H13Y       15.1700    7.2030  -17.3800 H         1 PLP1        0.0000
    116 C314       14.9860    8.8270  -18.8100 C.3       1 PLP1        0.0000
    117 H14X       15.5750    9.5460  -18.1970 H         1 PLP1        0.0000
    118 H14Y       14.1750    9.3980  -19.3140 H         1 PLP1        0.0000
    119 C315       15.9030    8.2120  -19.8760 C.3       1 PLP1        0.0000
    120 H15X       15.3110    7.4890  -20.4830 H         1 PLP1        0.0000
    121 H15Y       16.7100    7.6380  -19.3670 H         1 PLP1        0.0000
    122 C316       16.5350    9.2510  -20.8060 C.3       1 PLP1        0.0000
    123 H16X       17.1520    9.9690  -20.2250 H         1 PLP1        0.0000
    124 H16Y       15.7480    9.8200  -21.3450 H         1 PLP1        0.0000
    125 H16Z       17.1870    8.7550  -21.5570 H         1 PLP1        0.0000
@<TRIPOS>BOND
     1  125  122 1 
     2  124  122 1 
     3  122  123 1 
     4  122  119 1 
     5  120  119 1 
     6  119  121 1 
     7  119  116 1 
     8  118  116 1 
     9  116  117 1 
    10  116  113 1 
    11  114  113 1 
    12  113  115 1 
    13  113  110 1 
    14  112  110 1 
    15  110  111 1 
    16  110  107 1 
    17  108  107 1 
    18  107  109 1 
    19  107  104 1 
    20  106  104 1 
    21  104  105 1 
    22  104  101 1 
    23  102  101 1 
    24  101  103 1 
    25  101   98 1 
    26  100   98 1 
    27   98   99 1 
    28   98   95 1 
    29   96   95 1 
    30   95   97 1 
    31   95   92 1 
    32   94   92 1 
    33   92   93 1 
    34   92   89 1 
    35   75   73 1 
    36   90   89 1 
    37   66   65 1 
    38   77   76 1 
    39   68   67 1 
    40   89   91 1 
    41   89   86 1 
    42   74   73 1 
    43   73   76 1 
    44   73   70 1 
    45   88   86 1 
    46   65   67 1 
    47   65   63 2 
    48   76   78 1 
    49   76   79 1 
    50   67   70 1 
    51   67   69 1 
    52   86   87 1 
    53   86   83 1 
    54   64   63 1 
    55   70   71 1 
    56   70   72 1 
    57   84   83 1 
    58   63   60 1 
    59   81   79 1 
    60   79   82 1 
    61   79   80 1 
    62   83   85 1 
    63   83   35 1 
    64   37   35 1 
    65   60   61 1 
    66   60   62 1 
    67   60   58 1 
    68   35   36 1 
    69   35   33 1 
    70   52   50 1 
    71   59   58 1 
    72   58   56 2 
    73   33   34 2 
    74   33   32 1 
    75   49   47 1 
    76   50   51 1 
    77   50   47 1 
    78   50   53 1 
    79   32   29 1 
    80   56   53 1 
    81   56   57 1 
    82   55   53 1 
    83   48   47 1 
    84   47   44 1 
    85   53   54 1 
    86   31   29 1 
    87   29   30 1 
    88   29   21 1 
    89   43   41 1 
    90   44   45 1 
    91   44   41 1 
    92   44   46 1 
    93   22   21 1 
    94   42   41 1 
    95   21   23 1 
    96   21   18 1 
    97   41   38 1 
    98   15   13 2 
    99   14   13 1 
   100   23   24 1 
   101   17   13 1 
   102   17   18 1 
   103   13   16 1 
   104   18   20 1 
   105   18   19 1 
   106    9    8 1 
   107   24   25 2 
   108   24   26 1 
   109   38   39 1 
   110   38   26 1 
   111   38   40 1 
   112   28   26 1 
   113    8    6 1 
   114   26   27 1 
   115    2    1 1 
   116   16   10 1 
   117   11   10 1 
   118   10    6 1 
   119   10   12 1 
   120    6    1 1 
   121    6    7 1 
   122    1    3 1 
   123    1    4 1 
   124    5    4 1 
